@<TRIPOS>MOLECULE
RQ3
   47    48     0     0     0
SMALL
USER_CHARGES

@<TRIPOS>ATOM
      1 C1         14.3030   11.6400   39.1100 C.3       1 <0>        -0.0396
      2 C2         18.9090    9.8760   38.2190 C.3       1 <0>        -0.0396
      3 C3         15.1160   22.5540   45.0230 C.3       1 <0>        -0.0303
      4 C4         17.5310   21.9290   44.8610 C.3       1 <0>        -0.0303
      5 C5         16.9520   16.8770   43.6600 C.ar      1 <0>        -0.0557
      6 C6         18.2350   18.2860   42.2070 C.ar      1 <0>        -0.0557
      7 C7         16.2460   17.9700   44.1170 C.ar      1 <0>        -0.0314
      8 C8         17.5250   19.4050   42.6630 C.ar      1 <0>        -0.0314
      9 C9         16.6210   10.7910   38.7010 C.ar      1 <0>        -0.0558
     10 C10        16.3370   12.7960   39.9850 C.ar      1 <0>        -0.0375
     11 C11        18.5490   11.9350   39.5470 C.ar      1 <0>        -0.0375
     12 C12        18.6450   15.8760   42.2400 C.3       1 <0>         0.0494
     13 C13        15.7870   11.7440   39.2710 C.ar      1 <0>        -0.0484
     14 C14        18.0040   10.8950   38.8420 C.ar      1 <0>        -0.0484
     15 C15        17.9400   17.0290   42.7100 C.ar      1 <0>        -0.0385
     16 C16        16.5230   19.2430   43.6250 C.ar      1 <0>         0.0774
     17 C17        17.7310   12.8920   40.1270 C.ar      1 <0>         0.0339
     18 C18        17.8550   15.0410   41.2140 C.2       1 <0>         0.2215
     19 C19        16.1500   22.3350   42.8110 C.2       1 <0>         0.0734
     20 C20        16.1410   21.7710   44.2030 C.3       1 <0>         0.1093
     21 N1         18.2860   13.8040   41.0020 N.am      1 <0>        -0.2852
     22 O1         16.9980   23.2070   42.5060 O.co2     1 <0>        -0.5469
     23 O2         16.7450   15.4130   40.8360 O.2       1 <0>        -0.2751
     24 O3         15.3160   21.8930   41.9800 O.co2     1 <0>        -0.5469
     25 O4         15.7170   20.3840   44.1390 O.3       1 <0>        -0.3330
     26 H1         13.8270   11.6145   40.1013 H         1 <0>         0.0278
     27 H2         13.9334   12.5106   38.5483 H         1 <0>         0.0278
     28 H3         14.0576   10.7184   38.5619 H         1 <0>         0.0278
     29 H4         19.1308   10.1672   37.1817 H         1 <0>         0.0278
     30 H5         19.8462    9.8191   38.7920 H         1 <0>         0.0278
     31 H6         18.4143    8.8936   38.2260 H         1 <0>         0.0278
     32 H7         15.5175   22.7421   46.0297 H         1 <0>         0.0261
     33 H8         14.9056   23.5131   44.5272 H         1 <0>         0.0261
     34 H9         14.1871   21.9702   45.1022 H         1 <0>         0.0261
     35 H10        18.3048   21.9665   44.0801 H         1 <0>         0.0261
     36 H11        17.5557   22.8600   45.4464 H         1 <0>         0.0261
     37 H12        17.7216   21.0728   45.5248 H         1 <0>         0.0261
     38 H13        16.7294   15.8944   44.0491 H         1 <0>         0.0621
     39 H14        19.0108   18.4032   41.4648 H         1 <0>         0.0621
     40 H15        15.4740   17.8380   44.8606 H         1 <0>         0.0643
     41 H16        17.7504   20.3868   42.2737 H         1 <0>         0.0643
     42 H17        16.1968    9.9668   38.1468 H         1 <0>         0.0623
     43 H18        15.6951   13.5409   40.4316 H         1 <0>         0.0639
     44 H19        19.6213   12.0098   39.6516 H         1 <0>         0.0639
     45 H20        19.5742   16.2165   41.7597 H         1 <0>         0.0407
     46 H21        18.8260   15.2301   43.1118 H         1 <0>         0.0407
     47 H22        19.0854   13.5054   41.5234 H         1 <0>         0.1548
@<TRIPOS>BOND
     1    1   13 1
     2    2   14 1
     3    3   20 1
     4    4   20 1
     5    5    7 ar
     6    5   15 ar
     7    6    8 ar
     8    6   15 ar
     9    7   16 ar
    10    8   16 ar
    11    9   13 ar
    12    9   14 ar
    13   10   13 ar
    14   10   17 ar
    15   11   14 ar
    16   11   17 ar
    17   12   15 1
    18   12   18 1
    19   16   25 1
    20   17   21 1
    21   18   21 am
    22   18   23 2
    23   19   20 1
    24   19   22 1
    25   19   24 2
    26   20   25 1
    27    1   26 1
    28    1   27 1
    29    1   28 1
    30    2   29 1
    31    2   30 1
    32    2   31 1
    33    3   32 1
    34    3   33 1
    35    3   34 1
    36    4   35 1
    37    4   36 1
    38    4   37 1
    39    5   38 1
    40    6   39 1
    41    7   40 1
    42    8   41 1
    43    9   42 1
    44   10   43 1
    45   11   44 1
    46   12   45 1
    47   12   46 1
    48   21   47 1
@<TRIPOS>MOLECULE
header  -14.635
   47    48     0     0     0
SMALL
USER_CHARGES

@<TRIPOS>ATOM
      1 C1          7.5780   13.1490   39.3220 C.3       1 TMP2       -0.1180
      2 C2          7.8450    8.6280   41.4700 C.3       1 TMP2       -0.1160
      3 C3         17.9340   19.5590   41.8520 C.3       1 TMP2       -0.1230
      4 C4         18.3510   17.4640   43.1520 C.3       1 TMP2       -0.1490
      5 C5         13.4920   15.5450   43.1210 C.ar      1 TMP2       -0.0810
      6 C6         15.2860   14.2030   42.2710 C.ar      1 TMP2       -0.0800
      7 C7         14.2050   16.6930   42.8480 C.ar      1 TMP2       -0.1390
      8 C8         16.0210   15.3620   41.9890 C.ar      1 TMP2       -0.1470
      9 C9          7.7480   10.9100   40.4260 C.ar      1 TMP2       -0.1420
     10 C10         9.4750   12.5250   40.8220 C.ar      1 TMP2       -0.1370
     11 C11         9.5910   10.3430   41.8490 C.ar      1 TMP2       -0.1600
     12 C12        13.2560   13.1300   43.1110 C.3       1 TMP2       -0.0840
     13 C13         8.2820   12.1730   40.2120 C.ar      1 TMP2       -0.0600
     14 C14         8.4110    9.9980   41.2460 C.ar      1 TMP2       -0.0630
     15 C15        14.0240   14.3050   42.8340 C.ar      1 TMP2       -0.1210
     16 C16        15.4740   16.6160   42.2800 C.ar      1 TMP2        0.1510
     17 C17        10.1350   11.6020   41.6500 C.ar      1 TMP2        0.1600
     18 C18        12.1590   12.8460   42.0670 C.2       1 TMP2        0.5030
     19 C19        18.1330   17.4270   40.6570 C.2       1 TMP2        0.4610
     20 C20        17.6300   18.0620   41.9220 C.3       1 TMP2        0.0670
     21 N21        11.2050   11.9980   42.4290 N.am      1 TMP2       -0.6660
     22 O22        19.2720   16.9040   40.6420 O.co2     1 TMP2       -0.6950
     23 O23        12.0390   13.5720   41.0810 O.2       1 TMP2       -0.5090
     24 O24        17.3780   17.4180   39.6510 O.co2     1 TMP2       -0.6800
     25 O25        16.1910   17.8870   41.9890 O.3       1 TMP2       -0.3510
     26 H1          7.3710   14.0730   39.8820 H         1 TMP2        0.0720
     27 H2          8.2140   13.3800   38.4550 H         1 TMP2        0.0740
     28 H3          6.6300   12.7100   38.9760 H         1 TMP2        0.0660
     29 H4          8.1890    7.9530   40.6740 H         1 TMP2        0.0720
     30 H5          8.1830    8.2480   42.4450 H         1 TMP2        0.0670
     31 H6          6.7460    8.6800   41.4580 H         1 TMP2        0.0670
     32 H7         18.2820   19.9090   42.8360 H         1 TMP2        0.0550
     33 H8         18.7170   19.7380   41.1010 H         1 TMP2        0.0680
     34 H9         17.0220   20.1050   41.5690 H         1 TMP2        0.0650
     35 H10        18.6940   16.4460   42.9170 H         1 TMP2        0.0650
     36 H11        19.2170   18.0910   43.4100 H         1 TMP2        0.0620
     37 H12        17.6560   17.4300   44.0040 H         1 TMP2        0.0460
     38 H13        12.5080   15.6160   43.5620 H         1 TMP2        0.1190
     39 H14        15.7020   13.2310   42.0500 H         1 TMP2        0.1230
     40 H15        13.7770   17.6580   43.0770 H         1 TMP2        0.1260
     41 H16        17.0050   15.2880   41.5490 H         1 TMP2        0.1330
     42 H17         6.8160   10.6320   39.9560 H         1 TMP2        0.1210
     43 H18         9.8970   13.5060   40.6610 H         1 TMP2        0.1400
     44 H19        10.0990    9.6320   42.4820 H         1 TMP2        0.1240
     45 H20        13.9420   12.2710   43.1280 H         1 TMP2        0.1030
     46 H21        12.7510   13.2940   44.0740 H         1 TMP2        0.1010
     47 H22        11.2650   11.6110   43.3480 H         1 TMP2        0.4120
@<TRIPOS>BOND
     1    1   27 1
     2    1   28 1
     3    1   26 1
     4    1   13 1
     5   19   24 1
     6    9   42 1
     7    9   13 ar
     8   10   13 ar
     9    9   14 ar
    10   19   22 2
    11   19   20 1
    12   10   43 1
    13    2   29 1
    14   10   17 ar
    15   18   23 2
    16    3   33 1
    17    2   14 1
    18   11   14 ar
    19    2   31 1
    20    2   30 1
    21    8   41 1
    22    3   34 1
    23   11   17 ar
    24   17   21 1
    25   11   44 1
    26    3   20 1
    27    3   32 1
    28   20   25 1
    29    4   20 1
    30    6    8 ar
    31    8   16 ar
    32   16   25 1
    33    6   39 1
    34   18   21 am
    35   12   18 1
    36    6   15 ar
    37    7   16 ar
    38   21   47 1
    39   12   15 1
    40    5   15 ar
    41    7   40 1
    42    5    7 ar
    43    4   35 1
    44   12   45 1
    45   12   46 1
    46    5   38 1
    47    4   36 1
    48    4   37 1
@<TRIPOS>MOLECULE
header  -21.188
   47    48     0     0     0
SMALL
USER_CHARGES

@<TRIPOS>ATOM
      1 C1          8.3830   12.7310   39.3010 C.3       1 TMP3       -0.1180
      2 C2          9.3030    8.3480   41.5520 C.3       1 TMP3       -0.1160
      3 C3         16.9280   21.0640   42.8050 C.3       1 TMP3       -0.1230
      4 C4         17.6070   19.0920   44.1830 C.3       1 TMP3       -0.1490
      5 C5         13.2560   16.2450   43.6660 C.ar      1 TMP3       -0.0810
      6 C6         15.3620   15.2880   43.0400 C.ar      1 TMP3       -0.0800
      7 C7         13.7530   17.5120   43.4500 C.ar      1 TMP3       -0.1390
      8 C8         15.8800   16.5710   42.8160 C.ar      1 TMP3       -0.1470
      9 C9          8.8720   10.5670   40.4590 C.ar      1 TMP3       -0.1420
     10 C10        10.1920   12.4920   41.0080 C.ar      1 TMP3       -0.1370
     11 C11        10.6230   10.3750   42.0830 C.ar      1 TMP3       -0.1600
     12 C12        13.5050   13.8320   43.6780 C.3       1 TMP3       -0.0840
     13 C13         9.1660   11.9130   40.2800 C.ar      1 TMP3       -0.0600
     14 C14         9.6080    9.8030   41.3630 C.ar      1 TMP3       -0.0630
     15 C15        14.0510   15.1360   43.4630 C.ar      1 TMP3       -0.1210
     16 C16        15.0670   17.6900   43.0230 C.ar      1 TMP3        0.1510
     17 C17        10.9270   11.7180   41.9200 C.ar      1 TMP3        0.1600
     18 C18        12.6060   13.3380   42.5270 C.2       1 TMP3        0.5030
     19 C19        17.6730   19.0180   41.6800 C.2       1 TMP3        0.4610
     20 C20        16.9200   19.5370   42.8710 C.3       1 TMP3        0.0670
     21 N21        11.8050   12.3160   42.8010 N.am      1 TMP3       -0.6660
     22 O22        18.8890   18.7310   41.7970 O.co2     1 TMP3       -0.6950
     23 O23        12.4540   14.0280   41.5210 O.2       1 TMP3       -0.5090
     24 O24        17.0500   18.8620   40.5990 O.co2     1 TMP3       -0.6800
     25 O25        15.5450   19.0800   42.7860 O.3       1 TMP3       -0.3510
     26 H1          7.9390   13.5940   39.8170 H         1 TMP3        0.0720
     27 H2          9.0530   13.0860   38.5030 H         1 TMP3        0.0740
     28 H3          7.5850   12.1130   38.8630 H         1 TMP3        0.0660
     29 H4          9.8590    7.7570   40.8100 H         1 TMP3        0.0720
     30 H5          9.6010    8.0400   42.5650 H         1 TMP3        0.0670
     31 H6          8.2240    8.1800   41.4200 H         1 TMP3        0.0670
     32 H7         17.0900   21.4740   43.8140 H         1 TMP3        0.0550
     33 H8         17.7370   21.3980   42.1390 H         1 TMP3        0.0680
     34 H9         15.9620   21.4190   42.4160 H         1 TMP3        0.0650
     35 H10        18.1680   18.1620   44.0060 H         1 TMP3        0.0650
     36 H11        18.2980   19.8770   44.5200 H         1 TMP3        0.0620
     37 H12        16.8430   18.9180   44.9550 H         1 TMP3        0.0460
     38 H13        12.2350   16.1180   43.9980 H         1 TMP3        0.1190
     39 H14        15.9840   14.4190   42.8840 H         1 TMP3        0.1230
     40 H15        13.1200   18.3730   43.6130 H         1 TMP3        0.1260
     41 H16        16.9000   16.6950   42.4860 H         1 TMP3        0.1330
     42 H17         8.0700   10.1120   39.8970 H         1 TMP3        0.1210
     43 H18        10.4260   13.5380   40.8740 H         1 TMP3        0.1400
     44 H19        11.1900    9.7770   42.7810 H         1 TMP3        0.1240
     45 H20        14.3410   13.1250   43.7850 H         1 TMP3        0.1030
     46 H21        12.8750   13.8890   44.5780 H         1 TMP3        0.1010
     47 H22        11.8400   11.9460   43.7290 H         1 TMP3        0.4120
@<TRIPOS>BOND
     1    1   27 1
     2    1   28 1
     3    1   26 1
     4    1   13 1
     5    9   42 1
     6    9   13 ar
     7   10   13 ar
     8    9   14 ar
     9   19   24 1
    10    2   29 1
    11   10   43 1
    12   10   17 ar
    13    2   14 1
    14   11   14 ar
    15    2   31 1
    16   18   23 2
    17    2   30 1
    18   19   22 2
    19   19   20 1
    20   11   17 ar
    21   17   21 1
    22   11   44 1
    23    3   33 1
    24    3   34 1
    25    8   41 1
    26   18   21 am
    27   12   18 1
    28   20   25 1
    29   16   25 1
    30   21   47 1
    31    3   20 1
    32    3   32 1
    33    8   16 ar
    34    6    8 ar
    35    4   20 1
    36    6   39 1
    37    7   16 ar
    38    6   15 ar
    39    7   40 1
    40    5    7 ar
    41    5   15 ar
    42   12   15 1
    43    5   38 1
    44   12   45 1
    45   12   46 1
    46    4   35 1
    47    4   36 1
    48    4   37 1
@<TRIPOS>MOLECULE
header  -15.199
   47    48     0     0     0
SMALL
USER_CHARGES

@<TRIPOS>ATOM
      1 C1          8.1740   13.0740   38.8710 C.3       1 TMP5       -0.1180
      2 C2          8.7970    8.5420   40.9200 C.3       1 TMP5       -0.1160
      3 C3         17.5170   20.5150   42.3480 C.3       1 TMP5       -0.1230
      4 C4         18.0730   18.4380   43.6240 C.3       1 TMP5       -0.1490
      5 C5         13.4810   15.9880   43.1720 C.ar      1 TMP5       -0.0810
      6 C6         15.4740   14.8850   42.4290 C.ar      1 TMP5       -0.0800
      7 C7         14.0760   17.2180   42.9830 C.ar      1 TMP5       -0.1390
      8 C8         16.0910   16.1280   42.2330 C.ar      1 TMP5       -0.1470
      9 C9          8.5170   10.8320   39.9280 C.ar      1 TMP5       -0.1420
     10 C10        10.0150   12.6160   40.4960 C.ar      1 TMP5       -0.1370
     11 C11        10.3030   10.4280   41.4740 C.ar      1 TMP5       -0.1600
     12 C12        13.5230   13.5650   43.0830 C.3       1 TMP5       -0.0840
     13 C13         8.9180   12.1540   39.7880 C.ar      1 TMP5       -0.0600
     14 C14         9.2180    9.9730   40.7740 C.ar      1 TMP5       -0.0630
     15 C15        14.1710   14.8270   42.8960 C.ar      1 TMP5       -0.1210
     16 C16        15.3840   17.3020   42.5130 C.ar      1 TMP5        0.1510
     17 C17        10.7140   11.7470   41.3500 C.ar      1 TMP5        0.1600
     18 C18        12.5460   13.1950   41.9510 C.2       1 TMP5        0.5030
     19 C19        18.0450   18.4610   41.1190 C.2       1 TMP5        0.4610
     20 C20        17.3810   18.9930   42.3570 C.3       1 TMP5        0.0670
     21 N21        11.6700   12.2330   42.2180 N.am      1 TMP5       -0.6660
     22 O22        19.2340   18.0680   41.1790 O.co2     1 TMP5       -0.6950
     23 O23        12.4170   13.9350   40.9780 O.2       1 TMP5       -0.5090
     24 O24        17.3720   18.4010   40.0580 O.co2     1 TMP5       -0.6800
     25 O25        15.9700   18.6550   42.3090 O.3       1 TMP5       -0.3510
     26 H1          7.8230   13.9500   39.4360 H         1 TMP5        0.0720
     27 H2          8.8420   13.4040   38.0610 H         1 TMP5        0.0740
     28 H3          7.3110   12.5440   38.4430 H         1 TMP5        0.0660
     29 H4          9.2740    7.9370   40.1360 H         1 TMP5        0.0720
     30 H5          9.1040    8.1690   41.9080 H         1 TMP5        0.0670
     31 H6          7.7040    8.4710   40.8240 H         1 TMP5        0.0670
     32 H7         17.7490   20.8690   43.3640 H         1 TMP5        0.0550
     33 H8         18.3270   20.8060   41.6640 H         1 TMP5        0.0680
     34 H9         16.5710   20.9650   42.0100 H         1 TMP5        0.0650
     35 H10        18.5470   17.4730   43.3910 H         1 TMP5        0.0650
     36 H11        18.8410   19.1490   43.9630 H         1 TMP5        0.0620
     37 H12        17.3260   18.2980   44.4190 H         1 TMP5        0.0460
     38 H13        12.4650   15.9350   43.5380 H         1 TMP5        0.1190
     39 H14        16.0130   13.9740   42.2160 H         1 TMP5        0.1230
     40 H15        13.5250   18.1210   43.2030 H         1 TMP5        0.1260
     41 H16        17.1060   16.1800   41.8680 H         1 TMP5        0.1330
     42 H17         7.6610   10.4680   39.3820 H         1 TMP5        0.1210
     43 H18        10.3330   13.6440   40.3930 H         1 TMP5        0.1400
     44 H19        10.8420    9.7580   42.1270 H         1 TMP5        0.1240
     45 H20        14.3000   12.7870   43.1320 H         1 TMP5        0.1030
     46 H21        12.9330   13.6380   44.0090 H         1 TMP5        0.1010
     47 H22        11.7070   11.8240   43.1290 H         1 TMP5        0.4120
@<TRIPOS>BOND
     1    1   27 1
     2    1   28 1
     3    1   26 1
     4    1   13 1
     5    9   42 1
     6    9   13 ar
     7   10   13 ar
     8    9   14 ar
     9   19   24 1
    10    2   29 1
    11   10   43 1
    12   10   17 ar
    13    2   14 1
    14   11   14 ar
    15    2   31 1
    16    2   30 1
    17   18   23 2
    18   19   22 2
    19   19   20 1
    20   11   17 ar
    21   17   21 1
    22   11   44 1
    23    3   33 1
    24    8   41 1
    25   18   21 am
    26   12   18 1
    27    3   34 1
    28    6   39 1
    29   21   47 1
    30    6    8 ar
    31    8   16 ar
    32   20   25 1
    33   16   25 1
    34    3   20 1
    35    3   32 1
    36    4   20 1
    37    6   15 ar
    38    7   16 ar
    39   12   15 1
    40    5   15 ar
    41    5    7 ar
    42    7   40 1
    43   12   45 1
    44   12   46 1
    45    5   38 1
    46    4   35 1
    47    4   36 1
    48    4   37 1
@<TRIPOS>MOLECULE
header  -10.716
   47    48     0     0     0
SMALL
USER_CHARGES

@<TRIPOS>ATOM
      1 C1          7.5440   12.8730   40.0210 C.3       1 TMP6       -0.1180
      2 C2          7.9170    8.5690   42.5610 C.3       1 TMP6       -0.1160
      3 C3         18.1080   19.3290   41.2300 C.3       1 TMP6       -0.1230
      4 C4         18.5940   17.3590   42.6900 C.3       1 TMP6       -0.1490
      5 C5         13.7270   15.5200   43.1680 C.ar      1 TMP6       -0.0810
      6 C6         15.4460   14.0770   42.3290 C.ar      1 TMP6       -0.0800
      7 C7         14.4300   16.6270   42.7410 C.ar      1 TMP6       -0.1390
      8 C8         16.1710   15.1940   41.8900 C.ar      1 TMP6       -0.1470
      9 C9          7.7690   10.7440   41.3160 C.ar      1 TMP6       -0.1420
     10 C10         9.5350   12.3620   41.4400 C.ar      1 TMP6       -0.1370
     11 C11         9.7010   10.2840   42.6580 C.ar      1 TMP6       -0.1600
     12 C12        13.4690   13.1190   43.4010 C.3       1 TMP6       -0.0840
     13 C13         8.2990   11.9740   40.9480 C.ar      1 TMP6       -0.0600
     14 C14         8.4790    9.9020   42.1710 C.ar      1 TMP6       -0.0630
     15 C15        14.2270   14.2510   42.9640 C.ar      1 TMP6       -0.1210
     16 C16        15.6570   16.4770   42.0990 C.ar      1 TMP6        0.1510
     17 C17        10.2420   11.5110   42.3050 C.ar      1 TMP6        0.1600
     18 C18        12.3000   12.7560   42.4650 C.2       1 TMP6        0.5030
     19 C19        18.2040   17.0930   40.2300 C.2       1 TMP6        0.4610
     20 C20        17.7960   17.8510   41.4610 C.3       1 TMP6        0.0670
     21 N21        11.3660   11.9610   42.9690 N.am      1 TMP6       -0.6660
     22 O22        19.3350   16.5530   40.1870 O.co2     1 TMP6       -0.6950
     23 O23        12.1200   13.3890   41.4260 O.2       1 TMP6       -0.5090
     24 O24        17.3830   17.0020   39.2820 O.co2     1 TMP6       -0.6800
     25 O25        16.3630   17.7050   41.6410 O.3       1 TMP6       -0.3510
     26 H1          7.3850   13.8480   40.5030 H         1 TMP6        0.0720
     27 H2          8.1220   13.0130   39.0940 H         1 TMP6        0.0740
     28 H3          6.5710   12.4190   39.7820 H         1 TMP6        0.0660
     29 H4          8.2000    7.8170   41.8100 H         1 TMP6        0.0720
     30 H5          8.3180    8.2750   43.5420 H         1 TMP6        0.0670
     31 H6          6.8210    8.6360   42.6180 H         1 TMP6        0.0670
     32 H7         18.5260   19.7640   42.1510 H         1 TMP6        0.0550
     33 H8         18.8390   19.4260   40.4140 H         1 TMP6        0.0680
     34 H9         17.1830   19.8610   40.9600 H         1 TMP6        0.0650
     35 H10        18.9110   16.3180   42.5300 H         1 TMP6        0.0650
     36 H11        19.4820   17.9940   42.8280 H         1 TMP6        0.0620
     37 H12        17.9590   17.4150   43.5860 H         1 TMP6        0.0460
     38 H13        12.7770   15.6480   43.6670 H         1 TMP6        0.1190
     39 H14        15.8370   13.0830   42.1720 H         1 TMP6        0.1230
     40 H15        14.0280   17.6160   42.9070 H         1 TMP6        0.1260
     41 H16        17.1210   15.0640   41.3930 H         1 TMP6        0.1330
     42 H17         6.8050   10.4390   40.9380 H         1 TMP6        0.1210
     43 H18         9.9530   13.3180   41.1600 H         1 TMP6        0.1400
     44 H19        10.2450    9.6270   43.3190 H         1 TMP6        0.1240
     45 H20        14.1470   12.2550   43.4520 H         1 TMP6        0.1030
     46 H21        13.0330   13.3800   44.3770 H         1 TMP6        0.1010
     47 H22        11.4860   11.6590   43.9140 H         1 TMP6        0.4120
@<TRIPOS>BOND
     1    1   27 1
     2   19   24 1
     3    1   28 1
     4    1   26 1
     5    1   13 1
     6   19   22 2
     7   19   20 1
     8    3   33 1
     9    9   42 1
    10    9   13 ar
    11   10   13 ar
    12    3   34 1
    13   10   43 1
    14    3   20 1
    15    3   32 1
    16    9   14 ar
    17    8   41 1
    18   18   23 2
    19   10   17 ar
    20   20   25 1
    21    4   20 1
    22   16   25 1
    23    2   29 1
    24    8   16 ar
    25    6    8 ar
    26    7   16 ar
    27    2   14 1
    28   11   14 ar
    29    6   39 1
    30   11   17 ar
    31   17   21 1
    32    6   15 ar
    33   18   21 am
    34   12   18 1
    35    4   35 1
    36    2   31 1
    37    2   30 1
    38   11   44 1
    39    4   36 1
    40    4   37 1
    41    7   40 1
    42    5    7 ar
    43    5   15 ar
    44   12   15 1
    45   21   47 1
    46    5   38 1
    47   12   45 1
    48   12   46 1
@<TRIPOS>MOLECULE
header  -21.376
   47    48     0     0     0
SMALL
USER_CHARGES

@<TRIPOS>ATOM
      1 C1          8.5490   19.1800   35.9220 C.3       1 TMP17      -0.1180
      2 C2          7.9650   24.1410   36.3350 C.3       1 TMP17      -0.1160
      3 C3         20.3120   16.1530   38.6070 C.3       1 TMP17      -0.1230
      4 C4         20.4180   18.6440   38.7860 C.3       1 TMP17      -0.1490
      5 C5         15.9370   19.7940   36.3570 C.ar      1 TMP17      -0.0810
      6 C6         16.3030   20.6030   38.5830 C.ar      1 TMP17      -0.0800
      7 C7         16.8130   18.7520   36.5780 C.ar      1 TMP17      -0.1390
      8 C8         17.1960   19.5490   38.8200 C.ar      1 TMP17      -0.1470
      9 C9          8.3080   21.6630   36.1250 C.ar      1 TMP17      -0.1420
     10 C10        10.4840   20.6890   36.3880 C.ar      1 TMP17      -0.1370
     11 C11        10.1870   23.0770   36.5850 C.ar      1 TMP17      -0.1600
     12 C12        14.7510   21.7750   37.1000 C.3       1 TMP17      -0.0840
     13 C13         9.1280   20.5410   36.1480 C.ar      1 TMP17      -0.0600
     14 C14         8.8470   22.9290   36.3470 C.ar      1 TMP17      -0.0630
     15 C15        15.6790   20.7150   37.3500 C.ar      1 TMP17      -0.1210
     16 C16        17.4510   18.6180   37.8090 C.ar      1 TMP17       0.1510
     17 C17        11.0200   21.9690   36.6070 C.ar      1 TMP17       0.1600
     18 C18        13.2750   21.3420   37.1860 C.2       1 TMP17       0.5030
     19 C19        18.9700   17.2880   40.3160 C.2       1 TMP17       0.4610
     20 C20        19.4970   17.4090   38.9150 C.3       1 TMP17       0.0670
     21 N21        12.3870   22.1610   36.6380 N.am      1 TMP17      -0.6660
     22 O22        19.6050   17.8170   41.2590 O.co2     1 TMP17      -0.6950
     23 O23        12.9860   20.1870   37.4960 O.2       1 TMP17      -0.5090
     24 O24        17.8860   16.6780   40.4980 O.co2     1 TMP17      -0.6800
     25 O25        18.3720   17.4640   37.9990 O.3       1 TMP17      -0.3510
     26 H1          9.0610   18.7000   35.0750 H         1 TMP17       0.0720
     27 H2          8.6850   18.5690   36.8270 H         1 TMP17       0.0740
     28 H3          7.4760   19.2710   35.6980 H         1 TMP17       0.0660
     29 H4          7.5400   24.2970   37.3370 H         1 TMP17       0.0720
     30 H5          8.5570   25.0220   36.0470 H         1 TMP17       0.0670
     31 H6          7.1510   23.9940   35.6100 H         1 TMP17       0.0670
     32 H7         21.2190   16.4320   38.0500 H         1 TMP17       0.0550
     33 H8         20.5960   15.6610   39.5490 H         1 TMP17       0.0680
     34 H9         19.7070   15.4630   38.0000 H         1 TMP17       0.0650
     35 H10        20.1350   19.3940   39.5400 H         1 TMP17       0.0650
     36 H11        21.4630   18.3410   38.9460 H         1 TMP17       0.0620
     37 H12        20.3120   19.0780   37.7810 H         1 TMP17       0.0460
     38 H13        15.4480   19.8880   35.3980 H         1 TMP17       0.1190
     39 H14        16.1010   21.3270   39.3580 H         1 TMP17       0.1230
     40 H15        17.0070   18.0370   35.7920 H         1 TMP17       0.1260
     41 H16        17.6840   19.4560   39.7790 H         1 TMP17       0.1330
     42 H17         7.2510   21.5530   35.9340 H         1 TMP17       0.1210
     43 H18        11.1280   19.8220   36.4070 H         1 TMP17       0.1400
     44 H19        10.5970   24.0610   36.7570 H         1 TMP17       0.1240
     45 H20        14.9210   22.5600   37.8520 H         1 TMP17       0.1030
     46 H21        14.9270   22.1230   36.0710 H         1 TMP17       0.1010
     47 H22        12.7380   22.9930   36.2090 H         1 TMP17       0.4120
@<TRIPOS>BOND
     1    1   26 1
     2    5   38 1
     3    2   31 1
     4    1   28 1
     5    7   40 1
     6    1   13 1
     7    1   27 1
     8    9   42 1
     9    2   30 1
    10   12   46 1
    11    9   13 ar
    12    9   14 ar
    13   10   13 ar
    14   21   47 1
    15    2   14 1
    16    2   29 1
    17   11   14 ar
    18    5    7 ar
    19    5   15 ar
    20   10   43 1
    21   10   17 ar
    22    7   16 ar
    23   11   17 ar
    24   11   44 1
    25   17   21 1
    26   18   21 am
    27   12   18 1
    28   12   15 1
    29   12   45 1
    30   18   23 2
    31    6   15 ar
    32    4   37 1
    33   16   25 1
    34    8   16 ar
    35   20   25 1
    36    3   34 1
    37    3   32 1
    38    6    8 ar
    39    6   39 1
    40    3   20 1
    41    3   33 1
    42    4   20 1
    43    4   36 1
    44    4   35 1
    45    8   41 1
    46   19   20 1
    47   19   24 1
    48   19   22 2
@<TRIPOS>MOLECULE
header  -12.879
   47    48     0     0     0
SMALL
USER_CHARGES

@<TRIPOS>ATOM
      1 C1         13.1410   11.7000   39.2970 C.3       1 TMP19      -0.1180
      2 C2         17.4980    9.3720   38.4520 C.3       1 TMP19      -0.1160
      3 C3         15.2710   22.5160   45.0610 C.3       1 TMP19      -0.1230
      4 C4         17.5910   21.5980   44.9180 C.3       1 TMP19      -0.1490
      5 C5         16.4000   16.6380   43.7860 C.ar      1 TMP19      -0.0810
      6 C6         17.8500   17.8580   42.3190 C.ar      1 TMP19      -0.0800
      7 C7         15.8320   17.8160   44.2240 C.ar      1 TMP19      -0.1390
      8 C8         17.2820   19.0620   42.7560 C.ar      1 TMP19      -0.1470
      9 C9         15.3380   10.5680   38.9110 C.ar      1 TMP19      -0.1420
     10 C10        15.2990   12.6110   40.1650 C.ar      1 TMP19      -0.1370
     11 C11        17.3900   11.4780   39.7490 C.ar      1 TMP19      -0.1600
     12 C12        17.9610   15.4160   42.3870 C.3       1 TMP19      -0.0840
     13 C13        14.6260   11.6240   39.4630 C.ar      1 TMP19      -0.0600
     14 C14        16.7230   10.5030   39.0560 C.ar      1 TMP19      -0.0630
     15 C15        17.4020   16.6540   42.8380 C.ar      1 TMP19      -0.1210
     16 C16        16.2650   19.0380   43.7150 C.ar      1 TMP19       0.1510
     17 C17        16.6940   12.5370   40.3120 C.ar      1 TMP19       0.1600
     18 C18        17.0770   14.6700   41.3700 C.2       1 TMP19       0.5030
     19 C19        16.2760   22.1400   42.8570 C.2       1 TMP19       0.4610
     20 C20        16.1940   21.6020   44.2560 C.3       1 TMP19       0.0670
     21 N21        17.3540   13.3860   41.1770 N.am      1 TMP19      -0.6660
     22 O22        17.2260   22.8970   42.5430 O.co2     1 TMP19      -0.6950
     23 O23        16.0230   15.1700   40.9810 O.2       1 TMP19      -0.5090
     24 O24        15.3970   21.7920   42.0280 O.co2     1 TMP19      -0.6800
     25 O25        15.6030   20.2770   44.2100 O.3       1 TMP19      -0.3510
     26 H1         12.6620   11.7480   40.2860 H         1 TMP19       0.0720
     27 H2         12.8820   12.6020   38.7210 H         1 TMP19       0.0740
     28 H3         12.7860   10.8080   38.7610 H         1 TMP19       0.0660
     29 H4         17.7570    9.6180   37.4120 H         1 TMP19       0.0720
     30 H5         18.4190    9.2090   39.0300 H         1 TMP19       0.0670
     31 H6         16.8860    8.4580   38.4700 H         1 TMP19       0.0670
     32 H7         15.6900   22.6680   46.0670 H         1 TMP19       0.0550
     33 H8         15.1810   23.4870   44.5500 H         1 TMP19       0.0680
     34 H9         14.2770   22.0520   45.1440 H         1 TMP19       0.0650
     35 H10        18.3660   21.5290   44.1400 H         1 TMP19       0.0650
     36 H11        17.7290   22.5270   45.4900 H         1 TMP19       0.0620
     37 H12        17.6740   20.7340   45.5950 H         1 TMP19       0.0460
     38 H13        16.0570   15.6950   44.1870 H         1 TMP19       0.1190
     39 H14        18.6370   17.8680   41.5790 H         1 TMP19       0.1230
     40 H15        15.0480   17.7900   44.9660 H         1 TMP19       0.1260
     41 H16        17.6270   20.0030   42.3540 H         1 TMP19       0.1330
     42 H17        14.8180    9.7940   38.3660 H         1 TMP19       0.1210
     43 H18        14.7520   13.4350   40.5990 H         1 TMP19       0.1400
     44 H19        18.4620   11.4230   39.8580 H         1 TMP19       0.1240
     45 H20        18.9260   15.6340   41.9070 H         1 TMP19       0.1030
     46 H21        18.0590   14.7660   43.2690 H         1 TMP19       0.1010
     47 H22        18.1090   12.9990   41.7060 H         1 TMP19       0.4120
@<TRIPOS>BOND
     1    2   29 1
     2    9   42 1
     3    2   31 1
     4    2   30 1
     5    2   14 1
     6    1   27 1
     7    1   28 1
     8    9   14 ar
     9    9   13 ar
    10   11   14 ar
    11    1   13 1
    12    1   26 1
    13   10   13 ar
    14   11   44 1
    15   11   17 ar
    16   10   17 ar
    17   10   43 1
    18   17   21 1
    19   18   23 2
    20   18   21 am
    21   21   47 1
    22   12   18 1
    23    6   39 1
    24   12   45 1
    25   19   24 1
    26    6    8 ar
    27    6   15 ar
    28    8   41 1
    29   12   15 1
    30   12   46 1
    31   19   22 2
    32    8   16 ar
    33    5   15 ar
    34   19   20 1
    35   16   25 1
    36    7   16 ar
    37    5   38 1
    38    5    7 ar
    39    4   35 1
    40   20   25 1
    41    7   40 1
    42    4   20 1
    43    3   20 1
    44    3   33 1
    45    4   36 1
    46    4   37 1
    47    3   34 1
    48    3   32 1
@<TRIPOS>MOLECULE
header    0.000
   47    48     0     0     0
SMALL
USER_CHARGES

@<TRIPOS>ATOM
      1 C1         13.9450   11.6300   39.3510 C.3       1 TMP69      -0.1180
      2 C2         18.1270    9.8180   37.2660 C.3       1 TMP69      -0.1160
      3 C3         16.7980   21.3050   46.6300 C.3       1 TMP69      -0.1230
      4 C4         19.0750   20.5970   45.8800 C.3       1 TMP69      -0.1490
      5 C5         17.8530   15.8630   44.0350 C.ar      1 TMP69      -0.0810
      6 C6         18.9440   17.4360   42.5930 C.ar      1 TMP69      -0.0800
      7 C7         17.3430   16.8950   44.7950 C.ar      1 TMP69      -0.1390
      8 C8         18.4320   18.4940   43.3570 C.ar      1 TMP69      -0.1470
      9 C9         16.0600   10.7490   38.3460 C.ar      1 TMP69      -0.1420
     10 C10        16.1990   12.5140   39.9630 C.ar      1 TMP69      -0.1370
     11 C11        18.2040   11.6320   38.9490 C.ar      1 TMP69      -0.1600
     12 C12        19.1500   15.0390   42.1570 C.3       1 TMP69      -0.0840
     13 C13        15.4350   11.6300   39.2190 C.ar      1 TMP69      -0.0600
     14 C14        17.4480   10.7580   38.2150 C.ar      1 TMP69      -0.0630
     15 C15        18.6480   16.1270   42.9390 C.ar      1 TMP69      -0.1210
     16 C16        17.6250   18.2180   44.4650 C.ar      1 TMP69       0.1510
     17 C17        17.5970   12.5140   39.8290 C.ar      1 TMP69       0.1600
     18 C18        18.1090   14.4340   41.1960 C.2       1 TMP69       0.5030
     19 C19        17.3620   21.4190   44.2470 C.2       1 TMP69       0.4610
     20 C20        17.5750   20.6250   45.5040 C.3       1 TMP69       0.0670
     21 N21        18.3850   13.2320   40.7060 N.am      1 TMP69      -0.6660
     22 O22        18.2050   22.2870   43.9180 O.co2     1 TMP69      -0.6950
     23 O23        16.9820   14.9210   41.1170 O.2       1 TMP69      -0.5090
     24 O24        16.3490   21.1700   43.5450 O.co2     1 TMP69      -0.6800
     25 O25        17.0320   19.2920   45.3080 O.3       1 TMP69      -0.3510
     26 H1         13.6690   11.4580   40.4010 H         1 TMP69       0.0720
     27 H2         13.5470   12.6020   39.0220 H         1 TMP69       0.0740
     28 H3         13.5220   10.8290   38.7250 H         1 TMP69       0.0660
     29 H4         18.1670   10.2720   36.2650 H         1 TMP69       0.0720
     30 H5         19.1490    9.6160   37.6180 H         1 TMP69       0.0670
     31 H6         17.5620    8.8750   37.2180 H         1 TMP69       0.0670
     32 H7         17.4010   21.2960   47.5500 H         1 TMP69       0.0550
     33 H8         16.5770   22.3440   46.3470 H         1 TMP69       0.0680
     34 H9         15.8560   20.7630   46.8040 H         1 TMP69       0.0650
     35 H10        19.6830   20.7300   44.9730 H         1 TMP69       0.0650
     36 H11        19.2900   21.4100   46.5880 H         1 TMP69       0.0620
     37 H12        19.3180   19.6310   46.3460 H         1 TMP69       0.0460
     38 H13        17.6280   14.8400   44.3000 H         1 TMP69       0.1190
     39 H14        19.5690   17.6400   41.7360 H         1 TMP69       0.1230
     40 H15        16.7220   16.6750   45.6510 H         1 TMP69       0.1260
     41 H16        18.6590   19.5150   43.0910 H         1 TMP69       0.1330
     42 H17        15.4700   10.0550   37.7660 H         1 TMP69       0.1210
     43 H18        15.7200   13.2020   40.6440 H         1 TMP69       0.1400
     44 H19        19.2790   11.6340   38.8430 H         1 TMP69       0.1240
     45 H20        19.9930   15.4110   41.5580 H         1 TMP69       0.1030
     46 H21        19.4410   14.2440   42.8600 H         1 TMP69       0.1010
     47 H22        19.2420   12.8080   40.9980 H         1 TMP69       0.4120
@<TRIPOS>BOND
     1    2   29 1
     2    2   31 1
     3    2   30 1
     4    2   14 1
     5    9   42 1
     6    9   14 ar
     7   11   14 ar
     8    9   13 ar
     9    1   28 1
    10   11   44 1
    11   11   17 ar
    12    1   27 1
    13    1   13 1
    14   10   13 ar
    15    1   26 1
    16   10   17 ar
    17   17   21 1
    18   10   43 1
    19   21   47 1
    20   18   21 am
    21   18   23 2
    22   12   18 1
    23   12   45 1
    24    6   39 1
    25   12   46 1
    26   12   15 1
    27    6   15 ar
    28    6    8 ar
    29    5   15 ar
    30    8   41 1
    31    8   16 ar
    32   19   24 1
    33   19   22 2
    34    5   38 1
    35    5    7 ar
    36   19   20 1
    37    7   16 ar
    38   16   25 1
    39    7   40 1
    40    4   35 1
    41   20   25 1
    42    4   20 1
    43    3   20 1
    44    4   37 1
    45    4   36 1
    46    3   33 1
    47    3   34 1
    48    3   32 1
@<TRIPOS>MOLECULE
header  813.654
   47    48     0     0     0
SMALL
USER_CHARGES

@<TRIPOS>ATOM
      1 C1         12.7140   12.3350   38.8000 C.3       1 TMP73      -0.1180
      2 C2         16.6910    9.3120   39.2050 C.3       1 TMP73      -0.1160
      3 C3         15.0580   23.0710   44.6300 C.3       1 TMP73      -0.1230
      4 C4         17.1500   21.7990   45.1340 C.3       1 TMP73      -0.1490
      5 C5         15.4820   17.0140   43.8590 C.ar      1 TMP73      -0.0810
      6 C6         17.4440   17.8920   42.7980 C.ar      1 TMP73      -0.0800
      7 C7         15.0250   18.2930   44.0990 C.ar      1 TMP73      -0.1390
      8 C8         16.9900   19.1960   43.0350 C.ar      1 TMP73      -0.1470
      9 C9         14.7160   10.8540   39.0410 C.ar      1 TMP73      -0.1420
     10 C10        14.6960   12.9610   40.1850 C.ar      1 TMP73      -0.1370
     11 C11        16.6050   11.4950   40.3700 C.ar      1 TMP73      -0.1600
     12 C12        17.1250   15.4730   42.9590 C.3       1 TMP73      -0.0840
     13 C13        14.0720   12.0430   39.3570 C.ar      1 TMP73      -0.0600
     14 C14        15.9860   10.5880   39.5520 C.ar      1 TMP73      -0.0630
     15 C15        16.6820   16.8100   43.2110 C.ar      1 TMP73      -0.1210
     16 C16        15.7710   19.3960   43.6910 C.ar      1 TMP73       0.1510
     17 C17        15.9730   12.6850   40.6990 C.ar      1 TMP73       0.1600
     18 C18        16.4220   14.8020   41.7630 C.2       1 TMP73       0.5030
     19 C19        16.5210   22.3920   42.7830 C.2       1 TMP73       0.4610
     20 C20        15.9920   21.9720   44.1250 C.3       1 TMP73       0.0670
     21 N21        16.5210   13.4810   41.6850 N.am      1 TMP73      -0.6660
     22 O22        17.6310   22.9700   42.7130 O.co2     1 TMP73      -0.6950
     23 O23        15.6010   15.4300   41.0950 O.2       1 TMP73      -0.5090
     24 O24        15.8390   22.1260   41.7600 O.co2     1 TMP73      -0.6800
     25 O25        15.2210   20.7530   43.9580 O.3       1 TMP73      -0.3510
     26 H1         12.0120   12.5250   39.6250 H         1 TMP73       0.0720
     27 H2         12.7670   13.2240   38.1520 H         1 TMP73       0.0740
     28 H3         12.3660   11.4720   38.2130 H         1 TMP73       0.0660
     29 H4         17.2460    9.4420   38.2650 H         1 TMP73       0.0720
     30 H5         17.3920    9.0500   40.0110 H         1 TMP73       0.0670
     31 H6         15.9520    8.5060   39.0850 H         1 TMP73       0.0670
     32 H7         15.2230   23.2260   45.7070 H         1 TMP73       0.0550
     33 H8         15.2670   24.0060   44.0880 H         1 TMP73       0.0680
     34 H9         14.0140   22.7720   44.4580 H         1 TMP73       0.0650
     35 H10        18.0770   21.5580   44.5920 H         1 TMP73       0.0650
     36 H11        17.2890   22.7340   45.6970 H         1 TMP73       0.0620
     37 H12        16.9110   20.9830   45.8310 H         1 TMP73       0.0460
     38 H13        14.8950   16.1660   44.1800 H         1 TMP73       0.1190
     39 H14        18.3850   17.7290   42.2930 H         1 TMP73       0.1230
     40 H15        14.0830   18.4400   44.6060 H         1 TMP73       0.1260
     41 H16        17.5790   20.0430   42.7150 H         1 TMP73       0.1330
     42 H17        14.2320   10.1340   38.3990 H         1 TMP73       0.1210
     43 H18        14.2010   13.8880   40.4360 H         1 TMP73       0.1400
     44 H19        17.5880   11.2830   40.7610 H         1 TMP73       0.1240
     45 H20        18.2030   15.5050   42.7460 H         1 TMP73       0.1030
     46 H21        16.8820   14.8780   43.8520 H         1 TMP73       0.1010
     47 H22        17.0380   13.0200   42.4060 H         1 TMP73       0.4120
@<TRIPOS>BOND
     1    1   27 1
     2    1   28 1
     3    2   29 1
     4    9   42 1
     5    1   13 1
     6    1   26 1
     7    9   13 ar
     8    9   14 ar
     9    2   31 1
    10    2   14 1
    11    2   30 1
    12   10   13 ar
    13   11   14 ar
    14   10   43 1
    15   10   17 ar
    16   11   17 ar
    17   11   44 1
    18   17   21 1
    19   18   23 2
    20   18   21 am
    21   21   47 1
    22   19   24 1
    23   12   18 1
    24    6   39 1
    25   19   22 2
    26    8   41 1
    27   12   45 1
    28   19   20 1
    29    6    8 ar
    30    6   15 ar
    31   12   15 1
    32   12   46 1
    33    8   16 ar
    34    5   15 ar
    35   16   25 1
    36    7   16 ar
    37    5    7 ar
    38    5   38 1
    39   20   25 1
    40    3   33 1
    41    7   40 1
    42    3   20 1
    43    4   20 1
    44    3   34 1
    45    4   35 1
    46    3   32 1
    47    4   36 1
    48    4   37 1
@<TRIPOS>MOLECULE
header  -14.252
   47    48     0     0     0
SMALL
USER_CHARGES

@<TRIPOS>ATOM
      1 C1          5.8120   13.6660   37.2480 C.3       1 TMP129     -0.1180
      2 C2          3.4410   10.0370   39.7650 C.3       1 TMP129     -0.1160
      3 C3         17.7160   14.0970   40.8300 C.3       1 TMP129     -0.1230
      4 C4         16.8380   12.3110   42.3420 C.3       1 TMP129     -0.1490
      5 C5         11.7270   13.1980   41.7130 C.ar      1 TMP129     -0.0810
      6 C6         12.6000   11.0130   41.2600 C.ar      1 TMP129     -0.0800
      7 C7         12.9630   13.7570   41.4630 C.ar      1 TMP129     -0.1390
      8 C8         13.8610   11.5680   41.0040 C.ar      1 TMP129     -0.1470
      9 C9          4.6650   11.8550   38.5390 C.ar      1 TMP129     -0.1420
     10 C10         6.9440   12.3830   39.0680 C.ar      1 TMP129     -0.1370
     11 C11         5.7890   10.6380   40.2710 C.ar      1 TMP129     -0.1600
     12 C12        10.2450   11.2830   41.8590 C.3       1 TMP129     -0.0840
     13 C13         5.8070   12.6120   38.3110 C.ar      1 TMP129     -0.0600
     14 C14         4.6650   10.8660   39.5220 C.ar      1 TMP129     -0.0630
     15 C15        11.5420   11.8350   41.6120 C.ar      1 TMP129     -0.1210
     16 C16        14.0410   12.9510   41.1060 C.ar      1 TMP129      0.1510
     17 C17         6.9350   11.3880   40.0590 C.ar      1 TMP129      0.1600
     18 C18         9.2640   11.4540   40.6830 C.2       1 TMP129      0.5030
     19 C19        16.8570   12.0200   39.8540 C.2       1 TMP129      0.4610
     20 C20        16.6580   13.0030   40.9710 C.3       1 TMP129      0.0670
     21 N21         7.9770   11.2860   40.9600 N.am      1 TMP129     -0.6660
     22 O22        17.5390   10.9870   40.0570 O.co2     1 TMP129     -0.6950
     23 O23         9.6370   11.9810   39.6360 O.2       1 TMP129     -0.5090
     24 O24        16.3060   12.2510   38.7470 O.co2     1 TMP129     -0.6800
     25 O25        15.3470   13.6100   40.8290 O.3       1 TMP129     -0.3510
     26 H1          6.0790   14.6350   37.6930 H         1 TMP129      0.0720
     27 H2          6.5480   13.4020   36.4740 H         1 TMP129      0.0740
     28 H3          4.8110   13.7340   36.7950 H         1 TMP129      0.0660
     29 H4          3.4430    9.1710   39.0880 H         1 TMP129      0.0720
     30 H5          3.4360    9.6870   40.8070 H         1 TMP129      0.0670
     31 H6          2.5440   10.6460   39.5780 H         1 TMP129      0.0670
     32 H7         18.1070   14.3600   41.8250 H         1 TMP129      0.0550
     33 H8         18.5380   13.7320   40.1980 H         1 TMP129      0.0680
     34 H9         17.2640   14.9870   40.3680 H         1 TMP129      0.0650
     35 H10        16.6050   11.2400   42.2450 H         1 TMP129      0.0650
     36 H11        17.8770   12.4300   42.6800 H         1 TMP129      0.0620
     37 H12        16.1580   12.7680   43.0760 H         1 TMP129      0.0460
     38 H13        10.8980   13.8320   41.9890 H         1 TMP129      0.1190
     39 H14        12.4540    9.9450   41.1840 H         1 TMP129      0.1230
     40 H15        13.0950   14.8260   41.5450 H         1 TMP129      0.1260
     41 H16        14.6890   10.9320   40.7280 H         1 TMP129      0.1330
     42 H17         3.7750   12.0320   37.9540 H         1 TMP129      0.1210
     43 H18         7.8350   12.9690   38.8970 H         1 TMP129      0.1400
     44 H19         5.7830    9.8700   41.0300 H         1 TMP129      0.1240
     45 H20        10.3640   10.2060   42.0500 H         1 TMP129      0.1030
     46 H21         9.8210   11.8260   42.7160 H         1 TMP129      0.1010
     47 H22         7.7390   11.0650   41.9050 H         1 TMP129      0.4120
@<TRIPOS>BOND
     1    1   27 1
     2    1   28 1
     3    1   26 1
     4    1   13 1
     5    9   42 1
     6    9   13 ar
     7   10   13 ar
     8    9   14 ar
     9   19   24 1
    10   10   43 1
    11   10   17 ar
    12    2   29 1
    13    2   14 1
    14   11   14 ar
    15    2   31 1
    16   18   23 2
    17    2   30 1
    18   19   22 2
    19   19   20 1
    20   11   17 ar
    21   17   21 1
    22    3   33 1
    23   11   44 1
    24    3   34 1
    25   18   21 am
    26   12   18 1
    27    8   41 1
    28   20   25 1
    29   16   25 1
    30    3   20 1
    31    3   32 1
    32   21   47 1
    33    4   20 1
    34    8   16 ar
    35    6    8 ar
    36    7   16 ar
    37    6   39 1
    38    6   15 ar
    39    7   40 1
    40    5    7 ar
    41    5   15 ar
    42   12   15 1
    43    5   38 1
    44   12   45 1
    45   12   46 1
    46    4   35 1
    47    4   36 1
    48    4   37 1
@<TRIPOS>MOLECULE
header   -9.795
   47    48     0     0     0
SMALL
USER_CHARGES

@<TRIPOS>ATOM
      1 C1         12.5550   13.3490   39.7460 C.3       1 TMP130     -0.1180
      2 C2         16.4720   11.1840   37.4910 C.3       1 TMP130     -0.1160
      3 C3         16.5890   22.3640   47.3090 C.3       1 TMP130     -0.1230
      4 C4         18.7600   21.4460   46.4760 C.3       1 TMP130     -0.1490
      5 C5         16.9950   16.9490   44.4860 C.ar      1 TMP130     -0.0810
      6 C6         18.2200   18.4520   43.0770 C.ar      1 TMP130     -0.0800
      7 C7         16.6160   17.9980   45.2960 C.ar      1 TMP130     -0.1390
      8 C8         17.8410   19.5270   43.8920 C.ar      1 TMP130     -0.1470
      9 C9         14.5410   12.2880   38.6560 C.ar      1 TMP130     -0.1420
     10 C10        14.9040   13.9620   40.3340 C.ar      1 TMP130     -0.1370
     11 C11        16.7810   12.9100   39.2390 C.ar      1 TMP130     -0.1600
     12 C12        18.1560   16.0660   42.5470 C.3       1 TMP130     -0.0840
     13 C13        14.0340   13.1950   39.5760 C.ar      1 TMP130     -0.0600
     14 C14        15.9190   12.1530   38.4910 C.ar      1 TMP130     -0.0630
     15 C15        17.7910   17.1700   43.3810 C.ar      1 TMP130     -0.1210
     16 C16        17.0330   19.2960   45.0100 C.ar      1 TMP130      0.1510
     17 C17        16.2910   13.8170   40.1660 C.ar      1 TMP130      0.1600
     18 C18        17.0360   15.6150   41.5900 C.2       1 TMP130      0.5030
     19 C19        17.1130   22.5120   44.9180 C.2       1 TMP130      0.4610
     20 C20        17.2650   21.6500   46.1390 C.3       1 TMP130      0.0670
     21 N21        17.1700   14.4110   41.0490 N.am      1 TMP130     -0.6660
     22 O22        18.0380   23.2970   44.6010 O.co2     1 TMP130     -0.6950
     23 O23        15.9660   16.2230   41.5580 O.2       1 TMP130     -0.5090
     24 O24        16.0640   22.4010   44.2330 O.co2     1 TMP130     -0.6800
     25 O25        16.5770   20.3930   45.9070 O.3       1 TMP130     -0.3510
     26 H1         12.2840   13.1660   40.7960 H         1 TMP130      0.0720
     27 H2         12.2580   14.3710   39.4640 H         1 TMP130      0.0740
     28 H3         12.0350   12.6250   39.1010 H         1 TMP130      0.0660
     29 H4         16.5410   11.6700   36.5070 H         1 TMP130      0.0720
     30 H5         17.4740   10.8590   37.8090 H         1 TMP130      0.0670
     31 H6         15.8080   10.3100   37.4210 H         1 TMP130      0.0670
     32 H7         17.2070   22.2530   48.2130 H         1 TMP130      0.0550
     33 H8         16.4760   23.4320   47.0700 H         1 TMP130      0.0680
     34 H9         15.5980   21.9200   47.4860 H         1 TMP130      0.0650
     35 H10        19.3610   21.5500   45.5590 H         1 TMP130      0.0650
     36 H11        19.0770   22.2030   47.2080 H         1 TMP130      0.0620
     37 H12        18.9070   20.4420   46.8990 H         1 TMP130      0.0460
     38 H13        16.6670   15.9460   44.7180 H         1 TMP130      0.1190
     39 H14        18.8450   18.6220   42.2130 H         1 TMP130      0.1230
     40 H15        15.9920   17.8130   46.1590 H         1 TMP130      0.1260
     41 H16        18.1720   20.5280   43.6600 H         1 TMP130      0.1330
     42 H17        13.8670   11.6850   38.0660 H         1 TMP130      0.1210
     43 H18        14.5170   14.6690   41.0530 H         1 TMP130      0.1400
     44 H19        17.8470   12.8010   39.1060 H         1 TMP130      0.1240
     45 H20        19.0220   16.3680   41.9410 H         1 TMP130      0.1030
     46 H21        18.3740   15.2160   43.2120 H         1 TMP130      0.1010
     47 H22        17.9820   13.8860   41.3030 H         1 TMP130      0.4120
@<TRIPOS>BOND
     1    2   29 1
     2    2   31 1
     3    2   30 1
     4    2   14 1
     5    9   42 1
     6    9   14 ar
     7   11   14 ar
     8    9   13 ar
     9    1   28 1
    10   11   44 1
    11   11   17 ar
    12    1   27 1
    13    1   13 1
    14   10   13 ar
    15    1   26 1
    16   10   17 ar
    17   17   21 1
    18   10   43 1
    19   21   47 1
    20   18   21 am
    21   18   23 2
    22   12   18 1
    23   12   45 1
    24    6   39 1
    25   12   46 1
    26   12   15 1
    27    6   15 ar
    28    6    8 ar
    29    5   15 ar
    30    8   41 1
    31    8   16 ar
    32   19   24 1
    33    5   38 1
    34    5    7 ar
    35   19   22 2
    36   19   20 1
    37    7   16 ar
    38   16   25 1
    39    7   40 1
    40    4   35 1
    41   20   25 1
    42    4   20 1
    43    3   20 1
    44    4   37 1
    45    4   36 1
    46    3   33 1
    47    3   34 1
    48    3   32 1
@<TRIPOS>MOLECULE
header   -6.115
   47    48     0     0     0
SMALL
USER_CHARGES

@<TRIPOS>ATOM
      1 C1         12.6320   17.7090   43.1150 C.3       1 TMP206     -0.1180
      2 C2         17.3110   16.0090   43.6970 C.3       1 TMP206     -0.1160
      3 C3          4.9830    8.1390   40.9600 C.3       1 TMP206     -0.1230
      4 C4          7.1860    6.9620   41.0690 C.3       1 TMP206     -0.1490
      5 C5         10.3180   11.1170   40.5980 C.ar      1 TMP206     -0.0810
      6 C6         10.5660    9.6740   42.4940 C.ar      1 TMP206     -0.0800
      7 C7          9.0000   10.7320   40.4610 C.ar      1 TMP206     -0.1390
      8 C8          9.2290    9.2740   42.3670 C.ar      1 TMP206     -0.1470
      9 C9         14.9550   16.8170   43.3820 C.ar      1 TMP206     -0.1420
     10 C10        13.2000   15.3010   42.7720 C.ar      1 TMP206     -0.1370
     11 C11        15.4580   14.4970   43.0570 C.ar      1 TMP206     -0.1600
     12 C12        12.4570   11.0260   41.7370 C.3       1 TMP206     -0.0840
     13 C13        13.6180   16.5840   43.0870 C.ar      1 TMP206     -0.0600
     14 C14        15.8700   15.7660   43.3670 C.ar      1 TMP206     -0.0630
     15 C15        11.0990   10.5960   41.6070 C.ar      1 TMP206     -0.1210
     16 C16         8.4420    9.8090   41.3420 C.ar      1 TMP206      0.1510
     17 C17        14.1280   14.2470   42.7540 C.ar      1 TMP206      0.1600
     18 C18        12.6090   12.4080   42.4010 C.2       1 TMP206      0.5030
     19 C19         6.2590    8.1770   43.0540 C.2       1 TMP206      0.4610
     20 C20         6.3890    8.1930   41.5580 C.3       1 TMP206      0.0670
     21 N21        13.7800   13.0130   42.2430 N.am      1 TMP206     -0.6660
     22 O22         6.3510    7.0870   43.6680 O.co2     1 TMP206     -0.6950
     23 O23        11.6180   13.0130   42.8060 O.2       1 TMP206     -0.5090
     24 O24         6.0850    9.2690   43.6520 O.co2     1 TMP206     -0.6800
     25 O25         7.0110    9.4440   41.1600 O.3       1 TMP206     -0.3510
     26 H1         12.1330   17.7850   42.1380 H         1 TMP206      0.0720
     27 H2         11.8810   17.5190   43.8960 H         1 TMP206      0.0740
     28 H3         13.1580   18.6510   43.3320 H         1 TMP206      0.0660
     29 H4         17.4570   15.9380   44.7840 H         1 TMP206      0.0720
     30 H5         17.9350   15.2560   43.1940 H         1 TMP206      0.0670
     31 H6         17.6000   17.0130   43.3530 H         1 TMP206      0.0670
     32 H7          4.9810    7.4670   40.0890 H         1 TMP206      0.0550
     33 H8          4.2790    7.7620   41.7170 H         1 TMP206      0.0680
     34 H9          4.6800    9.1480   40.6460 H         1 TMP206      0.0650
     35 H10         7.8580    6.6180   41.8700 H         1 TMP206      0.0650
     36 H11         6.4870    6.1540   40.8070 H         1 TMP206      0.0620
     37 H12         7.7800    7.2360   40.1850 H         1 TMP206      0.0460
     38 H13        10.7410   11.8340   39.9090 H         1 TMP206      0.1190
     39 H14        11.1800    9.2650   43.2830 H         1 TMP206      0.1230
     40 H15         8.3990   11.1480   39.6670 H         1 TMP206      0.1260
     41 H16         8.8080    8.5560   43.0550 H         1 TMP206      0.1330
     42 H17        15.2860   17.8150   43.6250 H         1 TMP206      0.1210
     43 H18        12.1620   15.1120   42.5410 H         1 TMP206      0.1400
     44 H19        16.1720   13.6870   43.0470 H         1 TMP206      0.1240
     45 H20        12.9900   10.2890   42.3570 H         1 TMP206      0.1030
     46 H21        12.8690   11.1080   40.7210 H         1 TMP206      0.1010
     47 H22        14.4720   12.5320   41.7060 H         1 TMP206      0.4120
@<TRIPOS>BOND
     1    7   40 1
     2    5   38 1
     3    3   32 1
     4    4   37 1
     5    5    7 ar
     6    7   16 ar
     7    5   15 ar
     8    3   34 1
     9   12   46 1
    10    4   36 1
    11    3   20 1
    12    3   33 1
    13    4   20 1
    14    4   35 1
    15   16   25 1
    16   20   25 1
    17    8   16 ar
    18   19   20 1
    19   12   15 1
    20    6   15 ar
    21   21   47 1
    22   12   45 1
    23   12   18 1
    24    1   26 1
    25   18   21 am
    26   17   21 1
    27    6    8 ar
    28    8   41 1
    29   18   23 2
    30    6   39 1
    31   10   43 1
    32   10   17 ar
    33   11   17 ar
    34   10   13 ar
    35   11   44 1
    36   19   24 1
    37   19   22 2
    38   11   14 ar
    39    1   13 1
    40    9   13 ar
    41    1   28 1
    42    1   27 1
    43    2   30 1
    44    2   31 1
    45    9   14 ar
    46    2   14 1
    47    9   42 1
    48    2   29 1
@<TRIPOS>MOLECULE
header   -1.248
   47    48     0     0     0
SMALL
USER_CHARGES

@<TRIPOS>ATOM
      1 C1         10.9710   20.9210   41.9950 C.3       1 TMP209     -0.1180
      2 C2         15.5690   19.4370   43.3290 C.3       1 TMP209     -0.1160
      3 C3          4.0990   10.9810   39.0450 C.3       1 TMP209     -0.1230
      4 C4          6.3030    9.9010   39.5230 C.3       1 TMP209     -0.1490
      5 C5          9.3120   14.1700   39.3850 C.ar      1 TMP209     -0.0810
      6 C6          9.3240   12.7920   41.3460 C.ar      1 TMP209     -0.0800
      7 C7          8.0460   13.7260   39.0660 C.ar      1 TMP209     -0.1390
      8 C8          8.0380   12.3320   41.0320 C.ar      1 TMP209     -0.1470
      9 C9         13.2580   20.1350   42.6380 C.ar      1 TMP209     -0.1420
     10 C10        11.6740   18.5300   41.8230 C.ar      1 TMP209     -0.1370
     11 C11        13.8910   17.8300   42.4700 C.ar      1 TMP209     -0.1600
     12 C12        11.2560   14.2010   40.8350 C.3       1 TMP209     -0.0840
     13 C13        11.9910   19.8380   42.1540 C.ar      1 TMP209     -0.0600
     14 C14        14.2040   19.1230   42.7960 C.ar      1 TMP209     -0.0630
     15 C15         9.9500   13.7100   40.5180 C.ar      1 TMP209     -0.1210
     16 C16         7.3960   12.8050   39.8830 C.ar      1 TMP209      0.1510
     17 C17        12.6330   17.5170   41.9810 C.ar      1 TMP209      0.1600
     18 C18        11.2550   15.6060   41.4660 C.2       1 TMP209      0.5030
     19 C19         5.0410   11.1310   41.3040 C.2       1 TMP209      0.4610
     20 C20         5.3960   11.1110   39.8440 C.3       1 TMP209      0.0670
     21 N21        12.4120   16.2550   41.4660 N.am      1 TMP209     -0.6660
     22 O22         5.0800   10.0640   41.9610 O.co2     1 TMP209     -0.6950
     23 O23        10.1910   16.1800   41.6980 O.2       1 TMP209     -0.5090
     24 O24         4.7380   12.2320   41.8320 O.co2     1 TMP209     -0.6800
     25 O25         6.0230   12.3750   39.5020 O.3       1 TMP209     -0.3510
     26 H1         10.6230   20.9480   40.9520 H         1 TMP209      0.0720
     27 H2         10.1180   20.7220   42.6610 H         1 TMP209      0.0740
     28 H3         11.4230   21.8900   42.2560 H         1 TMP209      0.0660
     29 H4         15.5510   19.4030   44.4280 H         1 TMP209      0.0720
     30 H5         16.2890   18.6970   42.9510 H         1 TMP209      0.0670
     31 H6         15.8690   20.4420   42.9990 H         1 TMP209      0.0670
     32 H7          4.2530   10.2850   38.2070 H         1 TMP209      0.0550
     33 H8          3.3030   10.5960   39.6990 H         1 TMP209      0.0680
     34 H9          3.8090   11.9670   38.6540 H         1 TMP209      0.0650
     35 H10         6.8580    9.6080   40.4270 H         1 TMP209      0.0650
     36 H11         5.6830    9.0570   39.1860 H         1 TMP209      0.0620
     37 H12         7.0130   10.1750   38.7290 H         1 TMP209      0.0460
     38 H13         9.8070   14.8840   38.7430 H         1 TMP209      0.1190
     39 H14         9.8270   12.4310   42.2300 H         1 TMP209      0.1230
     40 H15         7.5560   14.0940   38.1760 H         1 TMP209      0.1260
     41 H16         7.5450   11.6170   41.6740 H         1 TMP209      0.1330
     42 H17        13.5120   21.1530   42.8930 H         1 TMP209      0.1210
     43 H18        10.6910   18.2910   41.4450 H         1 TMP209      0.1400
     44 H19        14.6280   17.0510   42.5960 H         1 TMP209      0.1240
     45 H20        11.7170   13.5050   41.5520 H         1 TMP209      0.1030
     46 H21        11.8140   14.2720   39.8890 H         1 TMP209      0.1010
     47 H22        13.1950   15.7890   41.0550 H         1 TMP209      0.4120
@<TRIPOS>BOND
     1    7   40 1
     2    3   32 1
     3    3   34 1
     4    4   37 1
     5    5   38 1
     6    3   33 1
     7    3   20 1
     8    5    7 ar
     9    7   16 ar
    10    4   36 1
    11    5   15 ar
    12   20   25 1
    13   16   25 1
    14    4   20 1
    15    4   35 1
    16   19   20 1
    17    8   16 ar
    18   12   46 1
    19   12   15 1
    20    6   15 ar
    21   12   18 1
    22   12   45 1
    23    1   26 1
    24    6    8 ar
    25    8   41 1
    26   21   47 1
    27   19   24 1
    28   19   22 2
    29    6   39 1
    30   10   43 1
    31   18   21 am
    32   18   23 2
    33   17   21 1
    34   10   17 ar
    35   10   13 ar
    36   11   17 ar
    37    1   13 1
    38    1   28 1
    39    1   27 1
    40    9   13 ar
    41   11   44 1
    42   11   14 ar
    43    9   14 ar
    44    9   42 1
    45    2   14 1
    46    2   30 1
    47    2   31 1
    48    2   29 1
@<TRIPOS>MOLECULE
header   -5.984
   47    48     0     0     0
SMALL
USER_CHARGES

@<TRIPOS>ATOM
      1 C1         12.3380   18.5170   43.1550 C.3       1 TMP210     -0.1180
      2 C2         17.3020   18.0830   42.6080 C.3       1 TMP210     -0.1160
      3 C3          6.9910    7.4200   41.4190 C.3       1 TMP210     -0.1230
      4 C4          9.3840    6.8640   40.9570 C.3       1 TMP210     -0.1490
      5 C5         11.2190   11.7220   40.3770 C.ar      1 TMP210     -0.0810
      6 C6         12.2230   10.2780   42.0050 C.ar      1 TMP210     -0.0800
      7 C7         10.0390   11.0110   40.4550 C.ar      1 TMP210     -0.1390
      8 C8         11.0300    9.5470   42.0940 C.ar      1 TMP210     -0.1470
      9 C9         14.8090   18.2560   42.8570 C.ar      1 TMP210     -0.1420
     10 C10        13.3900   16.3720   42.4260 C.ar      1 TMP210     -0.1370
     11 C11        15.7820   16.1780   42.1680 C.ar      1 TMP210     -0.1600
     12 C12        13.5110   12.1280   41.0590 C.3       1 TMP210     -0.0840
     13 C13        13.5390   17.6970   42.8020 C.ar      1 TMP210     -0.0600
     14 C14        15.9280   17.4880   42.5390 C.ar      1 TMP210     -0.0630
     15 C15        12.3050   11.3620   41.1460 C.ar      1 TMP210     -0.1210
     16 C16         9.9310    9.9190   41.3130 C.ar      1 TMP210      0.1510
     17 C17        14.5220   15.6050   42.1030 C.ar      1 TMP210      0.1600
     18 C18        13.4610   13.4560   41.8380 C.2       1 TMP210      0.5030
     19 C19         8.6450    7.6610   43.2130 C.2       1 TMP210      0.4610
     20 C20         8.4360    7.8070   41.7330 C.3       1 TMP210      0.0670
     21 N21        14.3830   14.3580   41.5280 N.am      1 TMP210     -0.6660
     22 O22         9.1330    6.5980   43.6640 O.co2     1 TMP210     -0.6950
     23 O23        12.4650   13.7490   42.4980 O.2       1 TMP210     -0.5090
     24 O24         8.3440    8.6280   43.9580 O.co2     1 TMP210     -0.6800
     25 O25         8.6290    9.2000   41.3720 O.3       1 TMP210     -0.3510
     26 H1         11.6350   18.5200   42.3100 H         1 TMP210      0.0720
     27 H2         11.8460   18.0860   44.0400 H         1 TMP210      0.0740
     28 H3         12.6520   19.5490   43.3750 H         1 TMP210      0.0660
     29 H4         17.6940   17.9840   43.6300 H         1 TMP210      0.0720
     30 H5         17.9650   17.5550   41.9080 H         1 TMP210      0.0670
     31 H6         17.2530   19.1480   42.3360 H         1 TMP210      0.0670
     32 H7          6.9630    6.8280   40.4920 H         1 TMP210      0.0550
     33 H8          6.5840    6.8230   42.2480 H         1 TMP210      0.0680
     34 H9          6.3880    8.3310   41.2910 H         1 TMP210      0.0650
     35 H10        10.2780    6.6600   41.5640 H         1 TMP210      0.0650
     36 H11         8.8650    5.9180   40.7410 H         1 TMP210      0.0620
     37 H12         9.6840    7.3410   40.0120 H         1 TMP210      0.0460
     38 H13        11.2910   12.5670   39.7080 H         1 TMP210      0.1190
     39 H14        13.0760    9.9960   42.6040 H         1 TMP210      0.1230
     40 H15         9.1950   11.3030   39.8480 H         1 TMP210      0.1260
     41 H16        10.9590    8.7010   42.7620 H         1 TMP210      0.1330
     42 H17        14.9300   19.2890   43.1460 H         1 TMP210      0.1210
     43 H18        12.4060   15.9290   42.3810 H         1 TMP210      0.1400
     44 H19        16.6530   15.5880   41.9240 H         1 TMP210      0.1240
     45 H20        14.3310   11.5210   41.4710 H         1 TMP210      0.1030
     46 H21        13.6570   12.3800   39.9980 H         1 TMP210      0.1010
     47 H22        15.0370   14.1120   40.8130 H         1 TMP210      0.4120
@<TRIPOS>BOND
     1    5   38 1
     2    7   40 1
     3   12   46 1
     4    4   37 1
     5    5    7 ar
     6    5   15 ar
     7    7   16 ar
     8    3   32 1
     9    4   36 1
    10   21   47 1
    11    4   35 1
    12    4   20 1
    13   12   15 1
    14   12   45 1
    15   12   18 1
    16    6   15 ar
    17    3   34 1
    18   16   25 1
    19    8   16 ar
    20   20   25 1
    21    3   20 1
    22    3   33 1
    23   18   21 am
    24   17   21 1
    25   19   20 1
    26   18   23 2
    27    2   30 1
    28   11   44 1
    29    6    8 ar
    30    6   39 1
    31    8   41 1
    32   11   17 ar
    33   10   17 ar
    34   11   14 ar
    35    1   26 1
    36    2   31 1
    37   10   43 1
    38   10   13 ar
    39    2   14 1
    40    9   14 ar
    41    2   29 1
    42    9   13 ar
    43    1   13 1
    44    9   42 1
    45    1   28 1
    46    1   27 1
    47   19   22 2
    48   19   24 1
@<TRIPOS>MOLECULE
header   -4.657
   47    48     0     0     0
SMALL
USER_CHARGES

@<TRIPOS>ATOM
      1 C1         17.2350   20.0010   38.7820 C.3       1 TMP211     -0.1180
      2 C2         16.7010   20.7380   43.7110 C.3       1 TMP211     -0.1160
      3 C3          6.7710   23.3250   32.9360 C.3       1 TMP211     -0.1230
      4 C4          6.1130   23.6970   35.3190 C.3       1 TMP211     -0.1490
      5 C5          9.9740   21.0320   37.6200 C.ar      1 TMP211     -0.0810
      6 C6          9.6340   23.3330   38.1960 C.ar      1 TMP211     -0.0800
      7 C7          9.3830   21.2400   36.3910 C.ar      1 TMP211     -0.1390
      8 C8          9.0320   23.5570   36.9510 C.ar      1 TMP211     -0.1470
      9 C9         16.9180   20.3700   41.2370 C.ar      1 TMP211     -0.1420
     10 C10        15.0560   20.7220   39.7670 C.ar      1 TMP211     -0.1370
     11 C11        14.8140   21.0740   42.1430 C.ar      1 TMP211     -0.1600
     12 C12        10.7350   21.8310   39.7800 C.3       1 TMP211     -0.0840
     13 C13        16.3830   20.3710   39.9550 C.ar      1 TMP211     -0.0600
     14 C14        16.1260   20.7260   42.3280 C.ar      1 TMP211     -0.0630
     15 C15        10.1020   22.0690   38.5190 C.ar      1 TMP211     -0.1210
     16 C16         8.9070   22.5010   36.0430 C.ar      1 TMP211      0.1510
     17 C17        14.2630   21.0750   40.8710 C.ar      1 TMP211      0.1600
     18 C18        12.2730   21.7730   39.7010 C.2       1 TMP211      0.5030
     19 C19         7.9650   25.0090   34.2580 C.2       1 TMP211      0.4610
     20 C20         7.3000   23.6640   34.3290 C.3       1 TMP211      0.0670
     21 N21        12.8970   21.2230   40.7350 N.am      1 TMP211     -0.6660
     22 O22         7.3130   26.0340   34.5700 O.co2     1 TMP211     -0.6950
     23 O23        12.8460   21.9730   38.6310 O.2       1 TMP211     -0.5090
     24 O24         9.1720   25.0630   33.9100 O.co2     1 TMP211     -0.6800
     25 O25         8.2960   22.6730   34.6970 O.3       1 TMP211     -0.3510
     26 H1         16.7730   19.1610   38.2430 H         1 TMP211      0.0720
     27 H2         17.3250   20.8650   38.1070 H         1 TMP211      0.0740
     28 H3         18.2350   19.7050   39.1350 H         1 TMP211      0.0660
     29 H4         17.1680   21.7140   43.9060 H         1 TMP211      0.0720
     30 H5         15.8990   20.5620   44.4430 H         1 TMP211      0.0670
     31 H6         17.4590   19.9460   43.7990 H         1 TMP211      0.0670
     32 H7          5.7770   22.8600   33.0240 H         1 TMP211      0.0550
     33 H8          6.6930   24.2460   32.3400 H         1 TMP211      0.0680
     34 H9          7.4610   22.6250   32.4420 H         1 TMP211      0.0650
     35 H10         6.2840   24.4820   36.0710 H         1 TMP211      0.0650
     36 H11         5.1850   23.9120   34.7710 H         1 TMP211      0.0620
     37 H12         6.0260   22.7220   35.8200 H         1 TMP211      0.0460
     38 H13        10.3390   20.0490   37.8800 H         1 TMP211      0.1190
     39 H14         9.7340   24.1430   38.9040 H         1 TMP211      0.1230
     40 H15         9.2890   20.4190   35.6950 H         1 TMP211      0.1260
     41 H16         8.6660   24.5400   36.6940 H         1 TMP211      0.1330
     42 H17        17.9500   20.0930   41.3890 H         1 TMP211      0.1210
     43 H18        14.6330   20.7240   38.7740 H         1 TMP211      0.1400
     44 H19        14.2070   21.3490   42.9920 H         1 TMP211      0.1240
     45 H20        10.4590   22.6490   40.4610 H         1 TMP211      0.1030
     46 H21        10.3930   20.8460   40.1330 H         1 TMP211      0.1010
     47 H22        12.3270   20.8850   41.4830 H         1 TMP211      0.4120
@<TRIPOS>BOND
     1    3   33 1
     2    3   34 1
     3    3   32 1
     4    3   20 1
     5   19   24 1
     6   19   20 1
     7   19   22 2
     8   20   25 1
     9    4   20 1
    10   16   25 1
    11    4   36 1
    12    4   37 1
    13    4   35 1
    14    7   40 1
    15    7   16 ar
    16    8   16 ar
    17    5    7 ar
    18    8   41 1
    19    6    8 ar
    20    5   38 1
    21    5   15 ar
    22    1   27 1
    23    6   15 ar
    24    6   39 1
    25    1   26 1
    26   12   15 1
    27   18   23 2
    28   10   43 1
    29    1   28 1
    30    1   13 1
    31   12   18 1
    32   18   21 am
    33   10   13 ar
    34   10   17 ar
    35   12   46 1
    36   12   45 1
    37    9   13 ar
    38   17   21 1
    39   21   47 1
    40   11   17 ar
    41    9   42 1
    42    9   14 ar
    43   11   14 ar
    44   11   44 1
    45    2   14 1
    46    2   31 1
    47    2   29 1
    48    2   30 1
@<TRIPOS>MOLECULE
header   -7.340
   47    48     0     0     0
SMALL
USER_CHARGES

@<TRIPOS>ATOM
      1 C1          6.7350   15.5610   37.8290 C.3       1 TMP215     -0.1180
      2 C2          5.4950   10.7980   38.7750 C.3       1 TMP215     -0.1160
      3 C3         18.0690   17.8800   42.4010 C.3       1 TMP215     -0.1230
      4 C4         17.7380   15.5180   43.1480 C.3       1 TMP215     -0.1490
      5 C5         12.5790   15.1760   42.3950 C.ar      1 TMP215     -0.0810
      6 C6         14.0260   13.5950   41.3220 C.ar      1 TMP215     -0.0800
      7 C7         13.6060   16.0930   42.4570 C.ar      1 TMP215     -0.1390
      8 C8         15.0780   14.5180   41.3790 C.ar      1 TMP215     -0.1470
      9 C9          6.1520   13.1820   38.3380 C.ar      1 TMP215     -0.1420
     10 C10         8.1950   14.0810   39.2130 C.ar      1 TMP215     -0.1370
     11 C11         7.5850   11.7890   39.6600 C.ar      1 TMP215     -0.1600
     12 C12        11.6940   13.0070   41.7630 C.3       1 TMP215     -0.0840
     13 C13         7.0340   14.2460   38.4770 C.ar      1 TMP215     -0.0600
     14 C14         6.4370   11.9530   38.9320 C.ar      1 TMP215     -0.0630
     15 C15        12.7820   13.9340   41.8310 C.ar      1 TMP215     -0.1210
     16 C16        14.8640   15.7770   41.9500 C.ar      1 TMP215      0.1510
     17 C17         8.4730   12.8420   39.8130 C.ar      1 TMP215      0.1600
     18 C18        10.6950   13.3050   40.6290 C.2       1 TMP215      0.5030
     19 C19        17.8180   16.1160   40.7170 C.2       1 TMP215      0.4610
     20 C20        17.3610   16.5650   42.0750 C.3       1 TMP215      0.0670
     21 N21         9.5080   12.7170   40.7180 N.am      1 TMP215     -0.6660
     22 O22        18.7640   15.2970   40.6260 O.co2     1 TMP215     -0.6950
     23 O23        10.8980   14.2380   39.8540 O.2       1 TMP215     -0.5090
     24 O24        17.2170   16.5590   39.7060 O.co2     1 TMP215     -0.6800
     25 O25        15.9310   16.8120   42.0260 O.3       1 TMP215     -0.3510
     26 H1          6.7240   16.3520   38.5930 H         1 TMP215      0.0720
     27 H2          7.5100   15.7860   37.0800 H         1 TMP215      0.0740
     28 H3          5.7520   15.5120   37.3370 H         1 TMP215      0.0660
     29 H4          5.7340   10.2510   37.8520 H         1 TMP215      0.0720
     30 H5          5.5960   10.1230   39.6380 H         1 TMP215      0.0670
     31 H6          4.4620   11.1730   38.7220 H         1 TMP215      0.0670
     32 H7         18.3790   17.8780   43.4570 H         1 TMP215      0.0550
     33 H8         18.9560   17.9870   41.7590 H         1 TMP215      0.0680
     34 H9         17.3820   18.7200   42.2210 H         1 TMP215      0.0650
     35 H10        17.8140   14.5240   42.6810 H         1 TMP215      0.0650
     36 H11        18.7050   15.7850   43.5980 H         1 TMP215      0.0620
     37 H12        16.9630   15.4970   43.9290 H         1 TMP215      0.0460
     38 H13        11.6070   15.4320   42.7910 H         1 TMP215      0.1190
     39 H14        14.1830   12.6210   40.8830 H         1 TMP215      0.1230
     40 H15        13.4350   17.0630   42.9010 H         1 TMP215      0.1260
     41 H16        16.0500   14.2600   40.9830 H         1 TMP215      0.1330
     42 H17         5.2430   13.3060   37.7680 H         1 TMP215      0.1210
     43 H18         8.8850   14.9040   39.3270 H         1 TMP215      0.1400
     44 H19         7.8000   10.8340   40.1170 H         1 TMP215      0.1240
     45 H20        12.1110   12.0030   41.5960 H         1 TMP215      0.1030
     46 H21        11.1410   13.0880   42.7110 H         1 TMP215      0.1010
     47 H22         9.3500   12.1300   41.5110 H         1 TMP215      0.4120
@<TRIPOS>BOND
     1    1   27 1
     2    1   28 1
     3    9   42 1
     4    1   13 1
     5    1   26 1
     6    2   29 1
     7    9   13 ar
     8    9   14 ar
     9   10   13 ar
    10    2   31 1
    11    2   14 1
    12    2   30 1
    13   11   14 ar
    14   10   43 1
    15   10   17 ar
    16   11   17 ar
    17   11   44 1
    18   19   24 1
    19   17   21 1
    20   18   23 2
    21   19   22 2
    22   18   21 am
    23   12   18 1
    24   19   20 1
    25   21   47 1
    26    6   39 1
    27    8   41 1
    28    6    8 ar
    29    6   15 ar
    30    8   16 ar
    31   12   45 1
    32    3   33 1
    33   12   15 1
    34   12   46 1
    35    5   15 ar
    36   16   25 1
    37    7   16 ar
    38   20   25 1
    39    3   20 1
    40    4   20 1
    41    3   34 1
    42    5    7 ar
    43    5   38 1
    44    3   32 1
    45    7   40 1
    46    4   35 1
    47    4   36 1
    48    4   37 1
@<TRIPOS>MOLECULE
header  -13.008
   47    48     0     0     0
SMALL
USER_CHARGES

@<TRIPOS>ATOM
      1 C1          7.5320   15.0090   37.2800 C.3       1 TMP217     -0.1180
      2 C2          5.9710   10.9720   39.8050 C.3       1 TMP217     -0.1160
      3 C3         18.1920   19.1140   42.2050 C.3       1 TMP217     -0.1230
      4 C4         17.6590   17.2240   43.7520 C.3       1 TMP217     -0.1490
      5 C5         12.6490   16.5300   42.4420 C.ar      1 TMP217     -0.0810
      6 C6         14.1650   14.6810   42.2910 C.ar      1 TMP217     -0.0800
      7 C7         13.6950   17.4160   42.2930 C.ar      1 TMP217     -0.1390
      8 C8         15.2380   15.5700   42.1390 C.ar      1 TMP217     -0.1470
      9 C9          6.7830   13.0070   38.5790 C.ar      1 TMP217     -0.1420
     10 C10         8.7180   14.2100   39.3270 C.ar      1 TMP217     -0.1370
     11 C11         7.9550   12.2630   40.5330 C.ar      1 TMP217     -0.1600
     12 C12        11.7720   14.2720   42.5780 C.3       1 TMP217     -0.0840
     13 C13         7.6800   14.0550   38.4230 C.ar      1 TMP217     -0.0600
     14 C14         6.9290   12.1120   39.6380 C.ar      1 TMP217     -0.0630
     15 C15        12.8780   15.1700   42.4400 C.ar      1 TMP217     -0.1210
     16 C16        14.9980   16.9480   42.1400 C.ar      1 TMP217      0.1510
     17 C17         8.8560   13.3070   40.3940 C.ar      1 TMP217      0.1600
     18 C18        10.9570   14.0880   41.2840 C.2       1 TMP217      0.5030
     19 C19        18.1080   16.8290   41.3200 C.2       1 TMP217      0.4610
     20 C20        17.4830   17.7640   42.3150 C.3       1 TMP217      0.0670
     21 N21         9.7460   13.5610   41.4180 N.am      1 TMP217     -0.6660
     22 O22        19.0220   16.0550   41.6930 O.co2     1 TMP217     -0.6950
     23 O23        11.3070   14.6490   40.2460 O.2       1 TMP217     -0.5090
     24 O24        17.6750   16.8330   40.1390 O.co2     1 TMP217     -0.6800
     25 O25        16.0860   17.9480   41.9640 O.3       1 TMP217     -0.3510
     26 H1          7.4460   16.0350   37.6660 H         1 TMP217      0.0720
     27 H2          8.4140   14.9380   36.6250 H         1 TMP217      0.0740
     28 H3          6.6280   14.7570   36.7060 H         1 TMP217      0.0660
     29 H4          6.3160   10.1120   39.2120 H         1 TMP217      0.0720
     30 H5          5.9210   10.6870   40.8660 H         1 TMP217      0.0670
     31 H6          4.9730   11.2790   39.4600 H         1 TMP217      0.0670
     32 H7         18.3490   19.5290   43.2120 H         1 TMP217      0.0550
     33 H8         19.1640   18.9770   41.7100 H         1 TMP217      0.0680
     34 H9         17.5730   19.8060   41.6150 H         1 TMP217      0.0650
     35 H10        17.7590   16.1290   43.7230 H         1 TMP217      0.0650
     36 H11        18.5630   17.6620   44.2000 H         1 TMP217      0.0620
     37 H12        16.7820   17.4960   44.3570 H         1 TMP217      0.0460
     38 H13        11.6420   16.9040   42.5610 H         1 TMP217      0.1190
     39 H14        14.3420   13.6150   42.2920 H         1 TMP217      0.1230
     40 H15        13.5030   18.4790   42.2960 H         1 TMP217      0.1260
     41 H16        16.2430   15.1950   42.0220 H         1 TMP217      0.1330
     42 H17         5.9710   12.8840   37.8790 H         1 TMP217      0.1210
     43 H18         9.4190   15.0230   39.2130 H         1 TMP217      0.1400
     44 H19         8.0620   11.5660   41.3500 H         1 TMP217      0.1240
     45 H20        12.1660   13.2900   42.8760 H         1 TMP217      0.1030
     46 H21        11.0940   14.7070   43.3280 H         1 TMP217      0.1010
     47 H22         9.4520   13.3270   42.3440 H         1 TMP217      0.4120
@<TRIPOS>BOND
     1    1   27 1
     2    1   28 1
     3    1   26 1
     4    1   13 1
     5    9   42 1
     6    9   13 ar
     7   10   13 ar
     8    9   14 ar
     9    2   29 1
    10   10   43 1
    11   10   17 ar
    12    2   31 1
    13    2   14 1
    14   11   14 ar
    15    2   30 1
    16   19   24 1
    17   18   23 2
    18   11   17 ar
    19   17   21 1
    20   11   44 1
    21   18   21 am
    22   12   18 1
    23   19   22 2
    24   19   20 1
    25   21   47 1
    26    3   34 1
    27    3   33 1
    28   16   25 1
    29   20   25 1
    30    8   41 1
    31    8   16 ar
    32    6    8 ar
    33    7   16 ar
    34    3   20 1
    35    3   32 1
    36    6   39 1
    37    6   15 ar
    38    7   40 1
    39    5    7 ar
    40    4   20 1
    41    5   15 ar
    42   12   15 1
    43    5   38 1
    44   12   45 1
    45   12   46 1
    46    4   35 1
    47    4   36 1
    48    4   37 1
@<TRIPOS>MOLECULE
header  -12.323
   47    48     0     0     0
SMALL
USER_CHARGES

@<TRIPOS>ATOM
      1 C1          6.9670   15.5730   37.5510 C.3       1 TMP218     -0.1180
      2 C2          5.8000   10.8300   38.6770 C.3       1 TMP218     -0.1160
      3 C3         18.0650   18.3780   42.4210 C.3       1 TMP218     -0.1230
      4 C4         17.7590   16.0460   43.2670 C.3       1 TMP218     -0.1490
      5 C5         12.6410   15.5430   42.3420 C.ar      1 TMP218     -0.0810
      6 C6         14.1630   13.9500   41.4000 C.ar      1 TMP218     -0.0800
      7 C7         13.6450   16.4880   42.3980 C.ar      1 TMP218     -0.1390
      8 C8         15.1920   14.9010   41.4510 C.ar      1 TMP218     -0.1470
      9 C9          6.4200   13.2060   38.1510 C.ar      1 TMP218     -0.1420
     10 C10         8.4070   14.1950   39.0570 C.ar      1 TMP218     -0.1370
     11 C11         7.8330   11.9120   39.5890 C.ar      1 TMP218     -0.1600
     12 C12        11.8300   13.3270   41.7820 C.3       1 TMP218     -0.0840
     13 C13         7.2710   14.2970   38.2710 C.ar      1 TMP218     -0.0600
     14 C14         6.7090   12.0140   38.8130 C.ar      1 TMP218     -0.0630
     15 C15        12.8940   14.2820   41.8450 C.ar      1 TMP218     -0.1210
     16 C16        14.9280   16.1790   41.9540 C.ar      1 TMP218      0.1510
     17 C17         8.6900   12.9920   39.7250 C.ar      1 TMP218      0.1600
     18 C18        10.8680   13.5470   40.5990 C.2       1 TMP218      0.5030
     19 C19        17.9180   16.5320   40.8150 C.2       1 TMP218      0.4610
     20 C20        17.4000   17.0330   42.1330 C.3       1 TMP218      0.0670
     21 N21         9.6930   12.9350   40.6720 N.am      1 TMP218     -0.6660
     22 O22        18.8850   15.7330   40.7980 O.co2     1 TMP218     -0.6950
     23 O23        11.0790   14.4480   39.7880 O.2       1 TMP218     -0.5090
     24 O24        17.3450   16.9120   39.7620 O.co2     1 TMP218     -0.6800
     25 O25        15.9670   17.2420   42.0190 O.3       1 TMP218     -0.3510
     26 H1          6.9090   16.3980   38.2750 H         1 TMP218      0.0720
     27 H2          7.7650   15.7810   36.8220 H         1 TMP218      0.0740
     28 H3          6.0050   15.4770   37.0260 H         1 TMP218      0.0660
     29 H4          6.0870   10.2470   37.7900 H         1 TMP218      0.0720
     30 H5          5.8840   10.1990   39.5730 H         1 TMP218      0.0670
     31 H6          4.7620   11.1770   38.5680 H         1 TMP218      0.0670
     32 H7         18.3340   18.4340   43.4870 H         1 TMP218      0.0550
     33 H8         18.9720   18.4770   41.8080 H         1 TMP218      0.0680
     34 H9         17.3660   19.1920   42.1770 H         1 TMP218      0.0650
     35 H10        17.8750   15.0340   42.8510 H         1 TMP218      0.0650
     36 H11        18.7020   16.3580   43.7390 H         1 TMP218      0.0620
     37 H12        16.9560   16.0430   44.0190 H         1 TMP218      0.0460
     38 H13        11.6490   15.7940   42.6900 H         1 TMP218      0.1190
     39 H14        14.3590   12.9610   41.0140 H         1 TMP218      0.1230
     40 H15        13.4340   17.4730   42.7880 H         1 TMP218      0.1260
     41 H16        16.1830   14.6480   41.1040 H         1 TMP218      0.1330
     42 H17         5.5310   13.2820   37.5420 H         1 TMP218      0.1210
     43 H18         9.0740   15.0390   39.1560 H         1 TMP218      0.1400
     44 H19         8.0510   10.9850   40.0990 H         1 TMP218      0.1240
     45 H20        12.2760   12.3270   41.6780 H         1 TMP218      0.1030
     46 H21        11.2400   13.4390   42.7040 H         1 TMP218      0.1010
     47 H22         9.5180   12.3820   41.4860 H         1 TMP218      0.4120
@<TRIPOS>BOND
     1    1   27 1
     2    1   28 1
     3    9   42 1
     4    1   13 1
     5    1   26 1
     6    2   29 1
     7    9   13 ar
     8    9   14 ar
     9   10   13 ar
    10    2   31 1
    11    2   14 1
    12    2   30 1
    13   11   14 ar
    14   10   43 1
    15   10   17 ar
    16   11   17 ar
    17   11   44 1
    18   17   21 1
    19   19   24 1
    20   18   23 2
    21   18   21 am
    22   12   18 1
    23   21   47 1
    24   19   22 2
    25   19   20 1
    26    6   39 1
    27    8   41 1
    28    6    8 ar
    29    6   15 ar
    30    8   16 ar
    31   12   45 1
    32   12   15 1
    33   12   46 1
    34    3   33 1
    35    5   15 ar
    36   16   25 1
    37    7   16 ar
    38   20   25 1
    39    3   20 1
    40    4   20 1
    41    3   34 1
    42    5    7 ar
    43    5   38 1
    44    7   40 1
    45    3   32 1
    46    4   35 1
    47    4   36 1
    48    4   37 1
@<TRIPOS>MOLECULE
header  -10.552
   47    48     0     0     0
SMALL
USER_CHARGES

@<TRIPOS>ATOM
      1 C1          7.2660   15.5330   37.4090 C.3       1 TMP219     -0.1180
      2 C2          6.3370   10.8170   38.8290 C.3       1 TMP219     -0.1160
      3 C3         17.7600   19.4930   42.7880 C.3       1 TMP219     -0.1230
      4 C4         17.5490   17.2150   43.7960 C.3       1 TMP219     -0.1490
      5 C5         12.5580   16.2750   42.5650 C.ar      1 TMP219     -0.0810
      6 C6         14.2490   14.7300   41.8600 C.ar      1 TMP219     -0.0800
      7 C7         13.4900   17.2910   42.6130 C.ar      1 TMP219     -0.1390
      8 C8         15.2050   15.7530   41.9060 C.ar      1 TMP219     -0.1470
      9 C9          6.8340   13.1850   38.1580 C.ar      1 TMP219     -0.1420
     10 C10         8.6790   14.3800   39.1160 C.ar      1 TMP219     -0.1370
     11 C11         8.2200   12.1080   39.7900 C.ar      1 TMP219     -0.1600
     12 C12        11.9410   13.9700   42.1310 C.3       1 TMP219     -0.0840
     13 C13         7.6000   14.3400   38.2480 C.ar      1 TMP219     -0.0600
     14 C14         7.1530   12.0700   38.9320 C.ar      1 TMP219     -0.0630
     15 C15        12.9310   15.0020   42.1900 C.ar      1 TMP219     -0.1210
     16 C16        14.8200   17.0430   42.2850 C.ar      1 TMP219      0.1510
     17 C17         8.9910   13.2550   39.8960 C.ar      1 TMP219      0.1600
     18 C18        11.0560   14.0300   40.8700 C.2       1 TMP219      0.5030
     19 C19        17.8560   17.5250   41.3300 C.2       1 TMP219      0.4610
     20 C20        17.2090   18.0850   42.5640 C.3       1 TMP219      0.0670
     21 N21         9.9230   13.3420   40.9110 N.am      1 TMP219     -0.6660
     22 O22        18.8730   16.7990   41.4430 O.co2     1 TMP219     -0.6950
     23 O23        11.2660   14.8800   40.0070 O.2       1 TMP219     -0.5090
     24 O24        17.3390   17.7820   40.2130 O.co2     1 TMP219     -0.6800
     25 O25        15.7790   18.1810   42.3350 O.3       1 TMP219     -0.3510
     26 H1          7.0990   16.4040   38.0590 H         1 TMP219      0.0720
     27 H2          8.1000   15.7430   36.7220 H         1 TMP219      0.0740
     28 H3          6.3540   15.3290   36.8290 H         1 TMP219      0.0660
     29 H4          6.7270   10.1910   38.0140 H         1 TMP219      0.0720
     30 H5          6.3970   10.2630   39.7770 H         1 TMP219      0.0670
     31 H6          5.2890   11.0780   38.6220 H         1 TMP219      0.0670
     32 H7         17.9450   19.6470   43.8620 H         1 TMP219      0.0550
     33 H8         18.7020   19.6100   42.2330 H         1 TMP219      0.0680
     34 H9         17.0290   20.2330   42.4320 H         1 TMP219      0.0650
     35 H10        17.7630   16.1860   43.4710 H         1 TMP219      0.0650
     36 H11        18.4310   17.6290   44.3050 H         1 TMP219      0.0620
     37 H12        16.6940   17.2100   44.4890 H         1 TMP219      0.0460
     38 H13        11.5290   16.4790   42.8220 H         1 TMP219      0.1190
     39 H14        14.5380   13.7310   41.5700 H         1 TMP219      0.1230
     40 H15        13.1860   18.2850   42.9080 H         1 TMP219      0.1260
     41 H16        16.2340   15.5480   41.6490 H         1 TMP219      0.1330
     42 H17         5.9900   13.1500   37.4860 H         1 TMP219      0.1210
     43 H18         9.2790   15.2750   39.1930 H         1 TMP219      0.1400
     44 H19         8.4610   11.2410   40.3860 H         1 TMP219      0.1240
     45 H20        12.4590   13.0000   42.1390 H         1 TMP219      0.1030
     46 H21        11.2780   14.1080   42.9980 H         1 TMP219      0.1010
     47 H22         9.7250   12.8410   41.7530 H         1 TMP219      0.4120
@<TRIPOS>BOND
     1    1   27 1
     2    1   28 1
     3    1   26 1
     4    1   13 1
     5    9   42 1
     6    2   29 1
     7    9   13 ar
     8    9   14 ar
     9   10   13 ar
    10    2   31 1
    11    2   14 1
    12    2   30 1
    13   11   14 ar
    14   10   43 1
    15   10   17 ar
    16   11   17 ar
    17   11   44 1
    18   17   21 1
    19   18   23 2
    20   19   24 1
    21   18   21 am
    22   12   18 1
    23   21   47 1
    24   19   22 2
    25   19   20 1
    26    6   39 1
    27    8   41 1
    28    6    8 ar
    29    6   15 ar
    30    8   16 ar
    31   12   45 1
    32   12   15 1
    33   12   46 1
    34    5   15 ar
    35    3   33 1
    36   16   25 1
    37    7   16 ar
    38   20   25 1
    39    3   34 1
    40    3   20 1
    41    4   20 1
    42    5    7 ar
    43    5   38 1
    44    7   40 1
    45    3   32 1
    46    4   35 1
    47    4   36 1
    48    4   37 1
@<TRIPOS>MOLECULE
header  -18.968
   47    48     0     0     0
SMALL
USER_CHARGES

@<TRIPOS>ATOM
      1 C1          7.3260   15.7710   37.1760 C.3       1 TMP224     -0.1180
      2 C2          6.7520   11.1240   38.9650 C.3       1 TMP224     -0.1160
      3 C3         16.7620   21.3430   43.0630 C.3       1 TMP224     -0.1230
      4 C4         16.6870   19.1540   44.2670 C.3       1 TMP224     -0.1490
      5 C5         11.9700   17.5540   42.6900 C.ar      1 TMP224     -0.0810
      6 C6         13.8730   16.1530   42.2960 C.ar      1 TMP224     -0.0800
      7 C7         12.7810   18.6690   42.7220 C.ar      1 TMP224     -0.1390
      8 C8         14.7090   17.2770   42.3260 C.ar      1 TMP224     -0.1470
      9 C9          7.0660   13.4640   38.1110 C.ar      1 TMP224     -0.1420
     10 C10         8.6720   14.9390   39.1090 C.ar      1 TMP224     -0.1370
     11 C11         8.3850   12.6980   39.9590 C.ar      1 TMP224     -0.1600
     12 C12        11.6400   15.1650   42.4310 C.3       1 TMP224     -0.0840
     13 C13         7.6950   14.7010   38.1560 C.ar      1 TMP224     -0.0600
     14 C14         7.4190   12.4650   39.0160 C.ar      1 TMP224     -0.0630
     15 C15        12.5070   16.3020   42.4770 C.ar      1 TMP224     -0.1210
     16 C16        14.1560   18.5440   42.5400 C.ar      1 TMP224      0.1510
     17 C17         9.0190   13.9290   40.0210 C.ar      1 TMP224      0.1600
     18 C18        10.8850   15.0140   41.0960 C.2       1 TMP224      0.5030
     19 C19        17.2070   19.2770   41.8200 C.2       1 TMP224      0.4610
     20 C20        16.3850   19.8680   42.9300 C.3       1 TMP224      0.0670
     21 N21         9.8300   14.2090   41.1020 N.am      1 TMP224     -0.6660
     22 O22        18.2760   18.6840   42.0950 O.co2     1 TMP224     -0.6950
     23 O23        11.0920   15.8030   40.1750 O.2       1 TMP224     -0.5090
     24 O24        16.7800   19.3760   40.6410 O.co2     1 TMP224     -0.6800
     25 O25        14.9820   19.7820   42.5650 O.3       1 TMP224     -0.3510
     26 H1          7.0060   16.6710   37.7200 H         1 TMP224      0.0720
     27 H2          8.1980   16.0110   36.5500 H         1 TMP224      0.0740
     28 H3          6.5020   15.4150   36.5390 H         1 TMP224      0.0660
     29 H4          7.2850   10.4760   38.2530 H         1 TMP224      0.0720
     30 H5          6.7740   10.6650   39.9640 H         1 TMP224      0.0670
     31 H6          5.7090   11.2460   38.6390 H         1 TMP224      0.0670
     32 H7         16.8210   21.6120   44.1280 H         1 TMP224      0.0550
     33 H8         17.7370   21.5160   42.5860 H         1 TMP224      0.0680
     34 H9         15.9970   21.9620   42.5710 H         1 TMP224      0.0650
     35 H10        17.0380   18.1300   44.0660 H         1 TMP224      0.0650
     36 H11        17.4670   19.7070   44.8100 H         1 TMP224      0.0620
     37 H12        15.7720   19.1140   44.8770 H         1 TMP224      0.0460
     38 H13        10.9040   17.6630   42.8320 H         1 TMP224      0.1190
     39 H14        14.2920   15.1710   42.1320 H         1 TMP224      0.1230
     40 H15        12.3480   19.6440   42.8890 H         1 TMP224      0.1260
     41 H16        15.7740   17.1660   42.1850 H         1 TMP224      0.1330
     42 H17         6.3020   13.2750   37.3720 H         1 TMP224      0.1210
     43 H18         9.1650   15.8990   39.1510 H         1 TMP224      0.1400
     44 H19         8.6540   11.9190   40.6570 H         1 TMP224      0.1240
     45 H20        12.2530   14.2640   42.5810 H         1 TMP224      0.1030
     46 H21        10.8830   15.3040   43.2170 H         1 TMP224      0.1010
     47 H22         9.6020   13.7650   41.9680 H         1 TMP224      0.4120
@<TRIPOS>BOND
     1    1   28 1
     2    1   27 1
     3    1   26 1
     4    1   13 1
     5    9   42 1
     6    9   13 ar
     7    9   14 ar
     8   10   13 ar
     9    2   29 1
    10    2   31 1
    11    2   14 1
    12    2   30 1
    13   11   14 ar
    14   10   43 1
    15   10   17 ar
    16   11   17 ar
    17   11   44 1
    18   17   21 1
    19   18   23 2
    20   19   24 1
    21   18   21 am
    22   12   18 1
    23   21   47 1
    24   19   22 2
    25   19   20 1
    26    6   39 1
    27    8   41 1
    28    6    8 ar
    29    6   15 ar
    30    8   16 ar
    31   12   15 1
    32   12   45 1
    33   12   46 1
    34    5   15 ar
    35   16   25 1
    36    7   16 ar
    37   20   25 1
    38    3   34 1
    39    3   33 1
    40    5    7 ar
    41    5   38 1
    42    7   40 1
    43    3   20 1
    44    4   20 1
    45    3   32 1
    46    4   35 1
    47    4   36 1
    48    4   37 1
@<TRIPOS>MOLECULE
header   -7.994
   47    48     0     0     0
SMALL
USER_CHARGES

@<TRIPOS>ATOM
      1 C1          8.4620   16.2650   35.9070 C.3       1 TMP231     -0.1180
      2 C2          5.0080   19.6210   34.5170 C.3       1 TMP231     -0.1160
      3 C3         17.3150   21.9380   42.5540 C.3       1 TMP231     -0.1230
      4 C4         15.8710   23.8840   41.9400 C.3       1 TMP231     -0.1490
      5 C5         13.0910   21.6270   38.1360 C.ar      1 TMP231     -0.0810
      6 C6         11.9450   22.6220   39.9910 C.ar      1 TMP231     -0.0800
      7 C7         14.2140   21.4400   38.9140 C.ar      1 TMP231     -0.1390
      8 C8         13.0800   22.4380   40.7920 C.ar      1 TMP231     -0.1470
      9 C9          6.7710   17.9780   35.2220 C.ar      1 TMP231     -0.1420
     10 C10         8.7450   18.7020   36.3740 C.ar      1 TMP231     -0.1370
     11 C11         7.0730   20.3070   35.7000 C.ar      1 TMP231     -0.1600
     12 C12        10.8030   22.3780   37.8430 C.3       1 TMP231     -0.0840
     13 C13         7.9830   17.6810   35.8310 C.ar      1 TMP231     -0.0600
     14 C14         6.3210   19.2960   35.1620 C.ar      1 TMP231     -0.0630
     15 C15        11.9610   22.2120   38.6670 C.ar      1 TMP231     -0.1210
     16 C16        14.2220   21.8420   40.2480 C.ar      1 TMP231      0.1510
     17 C17         8.2880   20.0290   36.3060 C.ar      1 TMP231      0.1600
     18 C18         9.9850   21.0860   37.6540 C.2       1 TMP231      0.5030
     19 C19        15.0030   22.0160   43.3660 C.2       1 TMP231      0.4610
     20 C20        15.8890   22.3610   42.2030 C.3       1 TMP231      0.0670
     21 N21         9.1190   21.0760   36.6490 N.am      1 TMP231     -0.6660
     22 O22        14.7460   22.8940   44.2240 O.co2     1 TMP231     -0.6950
     23 O23        10.3220   20.0510   38.2280 O.2       1 TMP231     -0.5090
     24 O24        14.5220   20.8560   43.4290 O.co2     1 TMP231     -0.6800
     25 O25        15.4540   21.5990   41.0460 O.3       1 TMP231     -0.3510
     26 H1          9.4530   16.1870   35.4370 H         1 TMP231      0.0720
     27 H2          8.5320   15.9570   36.9620 H         1 TMP231      0.0740
     28 H3          7.7520   15.6100   35.3800 H         1 TMP231      0.0660
     29 H4          4.2010   19.5240   35.2580 H         1 TMP231      0.0720
     30 H5          5.0330   20.6520   34.1350 H         1 TMP231      0.0670
     31 H6          4.8280   18.9250   33.6850 H         1 TMP231      0.0670
     32 H7         18.0220   22.7080   42.2090 H         1 TMP231      0.0550
     33 H8         17.4040   21.8200   43.6440 H         1 TMP231      0.0680
     34 H9         17.5450   20.9820   42.0610 H         1 TMP231      0.0650
     35 H10        14.9230   24.3090   42.3030 H         1 TMP231      0.0650
     36 H11        16.7100   24.3570   42.4710 H         1 TMP231      0.0620
     37 H12        15.9680   24.0720   40.8610 H         1 TMP231      0.0460
     38 H13        13.0960   21.3120   37.1030 H         1 TMP231      0.1190
     39 H14        11.0600   23.0830   40.4040 H         1 TMP231      0.1230
     40 H15        15.0930   20.9800   38.4870 H         1 TMP231      0.1260
     41 H16        13.0730   22.7550   41.8250 H         1 TMP231      0.1330
     42 H17         6.1750   17.1860   34.7940 H         1 TMP231      0.1210
     43 H18         9.6900   18.4790   36.8490 H         1 TMP231      0.1400
     44 H19         6.7190   21.3260   35.6500 H         1 TMP231      0.1240
     45 H20        10.1520   23.1280   38.3170 H         1 TMP231      0.1030
     46 H21        11.1560   22.6850   36.8470 H         1 TMP231      0.1010
     47 H22         9.0640   21.9020   36.0890 H         1 TMP231      0.4120
@<TRIPOS>BOND
     1    2   31 1
     2    2   30 1
     3    2   14 1
     4    2   29 1
     5    9   42 1
     6    9   14 ar
     7   11   14 ar
     8    9   13 ar
     9    1   28 1
    10    1   26 1
    11   11   44 1
    12   11   17 ar
    13    1   13 1
    14   10   13 ar
    15    1   27 1
    16   21   47 1
    17   10   17 ar
    18   17   21 1
    19   10   43 1
    20   18   21 am
    21   12   46 1
    22    5   38 1
    23   12   18 1
    24   18   23 2
    25   12   45 1
    26   12   15 1
    27    5   15 ar
    28    5    7 ar
    29    7   40 1
    30    6   15 ar
    31    7   16 ar
    32    6   39 1
    33    6    8 ar
    34    8   16 ar
    35   16   25 1
    36    8   41 1
    37    4   37 1
    38   20   25 1
    39    4   20 1
    40    4   35 1
    41    4   36 1
    42    3   34 1
    43    3   20 1
    44   19   20 1
    45    3   32 1
    46    3   33 1
    47   19   24 1
    48   19   22 2
@<TRIPOS>MOLECULE
header   -9.964
   47    48     0     0     0
SMALL
USER_CHARGES

@<TRIPOS>ATOM
      1 C1          8.8880   15.3090   36.0810 C.3       1 TMP232     -0.1180
      2 C2          5.3430   18.3230   34.2190 C.3       1 TMP232     -0.1160
      3 C3         17.3190   22.1090   42.1980 C.3       1 TMP232     -0.1230
      4 C4         15.8160   23.9040   41.3220 C.3       1 TMP232     -0.1490
      5 C5         13.2350   21.0920   37.7540 C.ar      1 TMP232     -0.0810
      6 C6         11.9990   22.2510   39.4490 C.ar      1 TMP232     -0.0800
      7 C7         14.3430   21.0480   38.5750 C.ar      1 TMP232     -0.1390
      8 C8         13.1180   22.2130   40.2930 C.ar      1 TMP232     -0.1470
      9 C9          7.1500   16.8540   35.1570 C.ar      1 TMP232     -0.1420
     10 C10         9.0610   17.7940   36.2580 C.ar      1 TMP232     -0.1370
     11 C11         7.3450   19.2330   35.3570 C.ar      1 TMP232     -0.1600
     12 C12        10.9280   21.7040   37.3210 C.3       1 TMP232     -0.0840
     13 C13         8.3560   16.6840   35.8240 C.ar      1 TMP232     -0.0600
     14 C14         6.6490   18.1350   34.9280 C.ar      1 TMP232     -0.0630
     15 C15        12.0680   21.6870   38.1850 C.ar      1 TMP232     -0.1210
     16 C16        14.2970   21.6060   39.8500 C.ar      1 TMP232      0.1510
     17 C17         8.5530   19.0820   36.0210 C.ar      1 TMP232      0.1600
     18 C18        10.1680   20.3640   37.2700 C.2       1 TMP232      0.5030
     19 C19        14.9840   22.1840   42.9410 C.2       1 TMP232      0.4610
     20 C20        15.8870   22.4250   41.7660 C.3       1 TMP232      0.0670
     21 N21         9.3320   20.1980   36.2540 N.am      1 TMP232     -0.6660
     22 O22        14.6680   23.1450   43.6820 O.co2     1 TMP232     -0.6950
     23 O23        10.5300   19.4200   37.9720 O.2       1 TMP232     -0.5090
     24 O24        14.5480   21.0200   43.1330 O.co2     1 TMP232     -0.6800
     25 O25        15.5160   21.5120   40.7000 O.3       1 TMP232     -0.3510
     26 H1          9.8940   15.2170   35.6460 H         1 TMP232      0.0720
     27 H2          8.9410   15.1320   37.1660 H         1 TMP232      0.0740
     28 H3          8.2200   14.5660   35.6200 H         1 TMP232      0.0660
     29 H4          4.5200   18.2810   34.9470 H         1 TMP232      0.0720
     30 H5          5.3370   19.3020   33.7160 H         1 TMP232      0.0670
     31 H6          5.2140   17.5260   33.4720 H         1 TMP232      0.0670
     32 H7         18.0030   22.8620   41.7790 H         1 TMP232      0.0550
     33 H8         17.3820   22.1250   43.2960 H         1 TMP232      0.0680
     34 H9         17.6010   21.1110   41.8290 H         1 TMP232      0.0650
     35 H10        14.8420   24.3280   41.6100 H         1 TMP232      0.0650
     36 H11        16.6210   24.4730   41.8110 H         1 TMP232      0.0620
     37 H12        15.9350   23.9660   40.2300 H         1 TMP232      0.0460
     38 H13        13.2820   20.6570   36.7670 H         1 TMP232      0.1190
     39 H14        11.0850   22.7190   39.7830 H         1 TMP232      0.1230
     40 H15        15.2510   20.5780   38.2260 H         1 TMP232      0.1260
     41 H16        13.0700   22.6500   41.2790 H         1 TMP232      0.1330
     42 H17         6.5990   15.9910   34.8130 H         1 TMP232      0.1210
     43 H18        10.0000   17.6700   36.7780 H         1 TMP232      0.1400
     44 H19         6.9520   20.2230   35.1780 H         1 TMP232      0.1240
     45 H20        10.2350   22.4760   37.6860 H         1 TMP232      0.1030
     46 H21        11.2960   21.9050   36.3040 H         1 TMP232      0.1010
     47 H22         9.2590   20.9480   35.5970 H         1 TMP232      0.4120
@<TRIPOS>BOND
     1    2   31 1
     2    2   30 1
     3    2   14 1
     4    2   29 1
     5    9   42 1
     6    9   14 ar
     7   11   14 ar
     8    9   13 ar
     9   11   44 1
    10   11   17 ar
    11   21   47 1
    12    1   28 1
    13    1   26 1
    14    1   13 1
    15   10   13 ar
    16   17   21 1
    17   10   17 ar
    18    1   27 1
    19   18   21 am
    20   10   43 1
    21   12   46 1
    22    5   38 1
    23   12   18 1
    24   18   23 2
    25   12   45 1
    26   12   15 1
    27    5   15 ar
    28    5    7 ar
    29    6   15 ar
    30    7   40 1
    31    7   16 ar
    32    6   39 1
    33    6    8 ar
    34    8   16 ar
    35   16   25 1
    36    4   37 1
    37    8   41 1
    38   20   25 1
    39    4   35 1
    40    4   20 1
    41    4   36 1
    42    3   20 1
    43   19   20 1
    44    3   32 1
    45    3   34 1
    46    3   33 1
    47   19   24 1
    48   19   22 2
@<TRIPOS>MOLECULE
header  -18.045
   47    48     0     0     0
SMALL
USER_CHARGES

@<TRIPOS>ATOM
      1 C1          7.4970   16.7180   36.3480 C.3       1 TMP234     -0.1180
      2 C2          5.1170   12.6800   38.1220 C.3       1 TMP234     -0.1160
      3 C3         18.0550   18.4300   42.7000 C.3       1 TMP234     -0.1230
      4 C4         17.0970   16.4620   43.9070 C.3       1 TMP234     -0.1490
      5 C5         12.2050   16.7360   42.0910 C.ar      1 TMP234     -0.0810
      6 C6         13.4490   14.7080   41.8030 C.ar      1 TMP234     -0.0800
      7 C7         13.3780   17.4590   42.1610 C.ar      1 TMP234     -0.1390
      8 C8         14.6470   15.4310   41.8730 C.ar      1 TMP234     -0.1470
      9 C9          6.3370   14.7050   37.2770 C.ar      1 TMP234     -0.1420
     10 C10         8.3330   15.4840   38.3520 C.ar      1 TMP234     -0.1370
     11 C11         7.1770   13.5400   39.1950 C.ar      1 TMP234     -0.1600
     12 C12        11.0050   14.6450   41.8240 C.3       1 TMP234     -0.0840
     13 C13         7.3860   15.6120   37.3500 C.ar      1 TMP234     -0.0600
     14 C14         6.2400   13.6690   38.2040 C.ar      1 TMP234     -0.0630
     15 C15        12.2360   15.3690   41.9120 C.ar      1 TMP234     -0.1210
     16 C16        14.6090   16.8170   42.0520 C.ar      1 TMP234      0.1510
     17 C17         8.2270   14.4400   39.2850 C.ar      1 TMP234      0.1600
     18 C18        10.3130   14.7600   40.4530 C.2       1 TMP234      0.5030
     19 C19        17.7390   16.3210   41.4900 C.2       1 TMP234      0.4610
     20 C20        17.1520   17.2050   42.5530 C.3       1 TMP234      0.0670
     21 N21         9.0320   14.4160   40.4070 N.am      1 TMP234     -0.6660
     22 O22        18.4880   15.3720   41.8240 O.co2     1 TMP234     -0.6950
     23 O23        10.8470   15.3900   39.5410 O.2       1 TMP234     -0.5090
     24 O24        17.4380   16.5460   40.2900 O.co2     1 TMP234     -0.6800
     25 O25        15.8410   17.6500   42.1150 O.3       1 TMP234     -0.3510
     26 H1          7.5190   17.6860   36.8700 H         1 TMP234      0.0720
     27 H2          8.4240   16.5950   35.7670 H         1 TMP234      0.0740
     28 H3          6.6320   16.6870   35.6700 H         1 TMP234      0.0660
     29 H4          5.3950   11.8620   37.4430 H         1 TMP234      0.0720
     30 H5          4.9150   12.2720   39.1230 H         1 TMP234      0.0670
     31 H6          4.2150   13.1820   37.7420 H         1 TMP234      0.0670
     32 H7         18.1620   18.6810   43.7660 H         1 TMP234      0.0550
     33 H8         19.0450   18.2080   42.2740 H         1 TMP234      0.0680
     34 H9         17.6070   19.2810   42.1660 H         1 TMP234      0.0650
     35 H10        17.0410   15.3770   43.7290 H         1 TMP234      0.0650
     36 H11        18.0020   16.6910   44.4880 H         1 TMP234      0.0620
     37 H12        16.2080   16.7870   44.4680 H         1 TMP234      0.0460
     38 H13        11.2560   17.2440   42.1770 H         1 TMP234      0.1190
     39 H14        13.4700   13.6370   41.6660 H         1 TMP234      0.1230
     40 H15        13.3410   18.5300   42.3010 H         1 TMP234      0.1260
     41 H16        15.5960   14.9210   41.7880 H         1 TMP234      0.1330
     42 H17         5.5930   14.8040   36.5000 H         1 TMP234      0.1210
     43 H18         9.1520   16.1860   38.4160 H         1 TMP234      0.1400
     44 H19         7.0960   12.7350   39.9090 H         1 TMP234      0.1240
     45 H20        11.2210   13.5830   42.0100 H         1 TMP234      0.1030
     46 H21        10.3210   15.0790   42.5690 H         1 TMP234      0.1010
     47 H22         8.6120   14.1130   41.2610 H         1 TMP234      0.4120
@<TRIPOS>BOND
     1    1   28 1
     2    1   27 1
     3    1   26 1
     4    1   13 1
     5    9   42 1
     6    9   13 ar
     7    9   14 ar
     8   10   13 ar
     9    2   29 1
    10    2   31 1
    11    2   14 1
    12    2   30 1
    13   11   14 ar
    14   10   43 1
    15   10   17 ar
    16   11   17 ar
    17   11   44 1
    18   17   21 1
    19   18   23 2
    20   19   24 1
    21   18   21 am
    22   21   47 1
    23   12   18 1
    24   19   22 2
    25   19   20 1
    26    6   39 1
    27    8   41 1
    28    6    8 ar
    29    6   15 ar
    30   12   15 1
    31   12   45 1
    32   12   46 1
    33    8   16 ar
    34    5   15 ar
    35   16   25 1
    36    7   16 ar
    37    5    7 ar
    38    5   38 1
    39   20   25 1
    40    7   40 1
    41    3   34 1
    42    3   33 1
    43    3   20 1
    44    4   20 1
    45    3   32 1
    46    4   35 1
    47    4   37 1
    48    4   36 1
@<TRIPOS>MOLECULE
header   -1.937
   47    48     0     0     0
SMALL
USER_CHARGES

@<TRIPOS>ATOM
      1 C1          7.5200   17.0730   36.2480 C.3       1 TMP238     -0.1180
      2 C2          5.1260   12.9340   37.7520 C.3       1 TMP238     -0.1160
      3 C3         17.9230   18.4980   42.9190 C.3       1 TMP238     -0.1230
      4 C4         16.9510   16.4640   43.9980 C.3       1 TMP238     -0.1490
      5 C5         12.0990   16.8090   42.0890 C.ar      1 TMP238     -0.0810
      6 C6         13.3620   14.8060   41.7220 C.ar      1 TMP238     -0.0800
      7 C7         13.2650   17.5340   42.2230 C.ar      1 TMP238     -0.1390
      8 C8         14.5540   15.5300   41.8570 C.ar      1 TMP238     -0.1470
      9 C9          6.3520   15.0080   37.0430 C.ar      1 TMP238     -0.1420
     10 C10         8.3190   15.7380   38.2020 C.ar      1 TMP238     -0.1370
     11 C11         7.1560   13.7460   38.9150 C.ar      1 TMP238     -0.1600
     12 C12        10.9180   14.7290   41.6850 C.3       1 TMP238     -0.0840
     13 C13         7.3940   15.9150   37.1870 C.ar      1 TMP238     -0.0600
     14 C14         6.2410   13.9230   37.9110 C.ar      1 TMP238     -0.0630
     15 C15        12.1420   15.4540   41.8380 C.ar      1 TMP238     -0.1210
     16 C16        14.5020   16.9050   42.1090 C.ar      1 TMP238      0.1510
     17 C17         8.1990   14.6450   39.0760 C.ar      1 TMP238      0.1600
     18 C18        10.2560   14.9140   40.3060 C.2       1 TMP238      0.5030
     19 C19        17.6470   16.4550   41.5920 C.2       1 TMP238      0.4610
     20 C20        17.0310   17.2790   42.6870 C.3       1 TMP238      0.0670
     21 N21         8.9790   14.5660   40.2130 N.am      1 TMP238     -0.6660
     22 O22        18.3950   15.4940   41.8920 O.co2     1 TMP238     -0.6950
     23 O23        10.8060   15.5940   39.4410 O.2       1 TMP238     -0.5090
     24 O24        17.3720   16.7420   40.3990 O.co2     1 TMP238     -0.6800
     25 O25        15.7280   17.7390   42.2440 O.3       1 TMP238     -0.3510
     26 H1          7.5240   18.0110   36.8210 H         1 TMP238      0.0720
     27 H2          8.4600   16.9850   35.6830 H         1 TMP238      0.0740
     28 H3          6.6700   17.0730   35.5500 H         1 TMP238      0.0660
     29 H4          5.4250   12.1550   37.0360 H         1 TMP238      0.0720
     30 H5          4.9050   12.4720   38.7250 H         1 TMP238      0.0670
     31 H6          4.2300   13.4510   37.3780 H         1 TMP238      0.0670
     32 H7         18.0050   18.6930   43.9990 H         1 TMP238      0.0550
     33 H8         18.9230   18.3050   42.5040 H         1 TMP238      0.0680
     34 H9         17.4820   19.3750   42.4200 H         1 TMP238      0.0650
     35 H10        16.9060   15.3910   43.7610 H         1 TMP238      0.0650
     36 H11        17.8410   16.6660   44.6110 H         1 TMP238      0.0620
     37 H12        16.0480   16.7540   44.5550 H         1 TMP238      0.0460
     38 H13        11.1450   17.3080   42.1800 H         1 TMP238      0.1190
     39 H14        13.3930   13.7440   41.5280 H         1 TMP238      0.1230
     40 H15        13.2180   18.5950   42.4190 H         1 TMP238      0.1260
     41 H16        15.5070   15.0310   41.7670 H         1 TMP238      0.1330
     42 H17         5.6260   15.1430   36.2560 H         1 TMP238      0.1210
     43 H18         9.1320   16.4390   38.3220 H         1 TMP238      0.1400
     44 H19         7.0650   12.9040   39.5830 H         1 TMP238      0.1240
     45 H20        11.1370   13.6600   41.8190 H         1 TMP238      0.1030
     46 H21        10.2150   15.1200   42.4360 H         1 TMP238      0.1010
     47 H22         8.5410   14.2160   41.0400 H         1 TMP238      0.4120
@<TRIPOS>BOND
     1    1   28 1
     2    1   27 1
     3    1   26 1
     4    1   13 1
     5    9   42 1
     6    2   29 1
     7    9   13 ar
     8    9   14 ar
     9   10   13 ar
    10    2   31 1
    11    2   14 1
    12    2   30 1
    13   11   14 ar
    14   10   43 1
    15   10   17 ar
    16   11   17 ar
    17   11   44 1
    18   17   21 1
    19   18   23 2
    20   18   21 am
    21   21   47 1
    22   12   18 1
    23   19   24 1
    24    6   39 1
    25   19   22 2
    26   19   20 1
    27   12   45 1
    28   12   15 1
    29   12   46 1
    30    6   15 ar
    31    6    8 ar
    32    8   41 1
    33    5   15 ar
    34    8   16 ar
    35    5   38 1
    36    5    7 ar
    37    7   16 ar
    38   16   25 1
    39    7   40 1
    40   20   25 1
    41    3   34 1
    42    3   33 1
    43    3   20 1
    44    4   20 1
    45    3   32 1
    46    4   35 1
    47    4   37 1
    48    4   36 1
@<TRIPOS>MOLECULE
header  -12.161
   47    48     0     0     0
SMALL
USER_CHARGES

@<TRIPOS>ATOM
      1 C1          6.9580   15.8030   37.4810 C.3       1 TMP246     -0.1180
      2 C2          5.7290   11.0420   38.4530 C.3       1 TMP246     -0.1160
      3 C3         17.6020   18.6040   43.2780 C.3       1 TMP246     -0.1230
      4 C4         17.2410   16.2610   44.0690 C.3       1 TMP246     -0.1490
      5 C5         12.2190   15.7450   42.7210 C.ar      1 TMP246     -0.0810
      6 C6         13.8230   14.1700   41.8890 C.ar      1 TMP246     -0.0800
      7 C7         13.2090   16.6930   42.8700 C.ar      1 TMP246     -0.1390
      8 C8         14.8380   15.1250   42.0350 C.ar      1 TMP246     -0.1470
      9 C9          6.3760   13.4270   38.0060 C.ar      1 TMP246     -0.1420
     10 C10         8.2770   14.4140   39.0840 C.ar      1 TMP246     -0.1370
     11 C11         7.6740   12.1220   39.5420 C.ar      1 TMP246     -0.1600
     12 C12        11.4700   13.5310   42.0710 C.3       1 TMP246     -0.0840
     13 C13         7.2090   14.5200   38.2090 C.ar      1 TMP246     -0.0600
     14 C14         6.6170   12.2280   38.6770 C.ar      1 TMP246     -0.0630
     15 C15        12.5190   14.4900   42.2330 C.ar      1 TMP246     -0.1210
     16 C16        14.5270   16.3950   42.5290 C.ar      1 TMP246      0.1510
     17 C17         8.5110   13.2050   39.7590 C.ar      1 TMP246      0.1600
     18 C18        10.6070   13.7600   40.8160 C.2       1 TMP246      0.5030
     19 C19        17.5980   16.7760   41.6440 C.2       1 TMP246      0.4610
     20 C20        16.9700   17.2590   42.9200 C.3       1 TMP246      0.0670
     21 N21         9.4330   13.1410   40.7850 N.am      1 TMP246     -0.6660
     22 O22        18.5670   15.9820   41.6970 O.co2     1 TMP246     -0.6950
     23 O23        10.8790   14.6710   40.0350 O.2       1 TMP246     -0.5090
     24 O24        17.1120   17.1660   40.5520 O.co2     1 TMP246     -0.6800
     25 O25        15.5510   17.4630   42.6910 O.3       1 TMP246     -0.3510
     26 H1          6.8360   16.6190   38.2070 H         1 TMP246      0.0720
     27 H2          7.8110   16.0240   36.8220 H         1 TMP246      0.0740
     28 H3          6.0430   15.7090   36.8770 H         1 TMP246      0.0660
     29 H4          6.0910   10.4700   37.5860 H         1 TMP246      0.0720
     30 H5          5.7430   10.4000   39.3460 H         1 TMP246      0.0670
     31 H6          4.7020   11.3850   38.2630 H         1 TMP246      0.0670
     32 H7         17.7820   18.6480   44.3620 H         1 TMP246      0.0550
     33 H8         18.5560   18.7140   42.7420 H         1 TMP246      0.0680
     34 H9         16.9210   19.4170   42.9860 H         1 TMP246      0.0650
     35 H10        17.3970   15.2540   43.6530 H         1 TMP246      0.0650
     36 H11        18.1400   16.5710   44.6210 H         1 TMP246      0.0620
     37 H12        16.3790   16.2450   44.7520 H         1 TMP246      0.0460
     38 H13        11.2010   15.9860   42.9890 H         1 TMP246      0.1190
     39 H14        14.0550   13.1860   41.5090 H         1 TMP246      0.1230
     40 H15        12.9620   17.6720   43.2530 H         1 TMP246      0.1260
     41 H16        15.8560   14.8810   41.7680 H         1 TMP246      0.1330
     42 H17         5.5400   13.5050   37.3280 H         1 TMP246      0.1210
     43 H18         8.9290   15.2600   39.2470 H         1 TMP246      0.1400
     44 H19         7.8550   11.1910   40.0570 H         1 TMP246      0.1240
     45 H20        11.9290   12.5340   41.9930 H         1 TMP246      0.1030
     46 H21        10.8050   13.6290   42.9430 H         1 TMP246      0.1010
     47 H22         9.1950   12.5780   41.5750 H         1 TMP246      0.4120
@<TRIPOS>BOND
     1    1   27 1
     2    1   28 1
     3    9   42 1
     4    1   26 1
     5    1   13 1
     6    2   29 1
     7    9   13 ar
     8    9   14 ar
     9   10   13 ar
    10    2   31 1
    11    2   14 1
    12    2   30 1
    13   11   14 ar
    14   10   43 1
    15   10   17 ar
    16   11   17 ar
    17   11   44 1
    18   17   21 1
    19   18   23 2
    20   19   24 1
    21   18   21 am
    22   21   47 1
    23   12   18 1
    24    6   39 1
    25   19   22 2
    26   19   20 1
    27    8   41 1
    28    6    8 ar
    29    6   15 ar
    30   12   45 1
    31    8   16 ar
    32   12   15 1
    33   12   46 1
    34    5   15 ar
    35   16   25 1
    36    7   16 ar
    37   20   25 1
    38    5    7 ar
    39    5   38 1
    40    3   33 1
    41    7   40 1
    42    3   20 1
    43    4   20 1
    44    3   34 1
    45    3   32 1
    46    4   35 1
    47    4   36 1
    48    4   37 1
@<TRIPOS>MOLECULE
header   -4.832
   47    48     0     0     0
SMALL
USER_CHARGES

@<TRIPOS>ATOM
      1 C1          7.4590   15.6530   37.0590 C.3       1 TMP250     -0.1180
      2 C2          6.3180   10.9760   38.4540 C.3       1 TMP250     -0.1160
      3 C3         17.5720   19.4650   43.2200 C.3       1 TMP250     -0.1230
      4 C4         17.2310   17.2050   44.2330 C.3       1 TMP250     -0.1490
      5 C5         12.3370   16.3530   42.6150 C.ar      1 TMP250     -0.0810
      6 C6         14.0440   14.7640   42.0660 C.ar      1 TMP250     -0.0800
      7 C7         13.2830   17.3500   42.7270 C.ar      1 TMP250     -0.1390
      8 C8         15.0160   15.7680   42.1770 C.ar      1 TMP250     -0.1470
      9 C9          6.9190   13.3250   37.7980 C.ar      1 TMP250     -0.1420
     10 C10         8.7060   14.4940   38.8870 C.ar      1 TMP250     -0.1370
     11 C11         8.1450   12.2410   39.5470 C.ar      1 TMP250     -0.1600
     12 C12        11.7060   14.0550   42.1590 C.3       1 TMP250     -0.0840
     13 C13         7.6990   14.4650   37.9360 C.ar      1 TMP250     -0.0600
     14 C14         7.1500   12.2140   38.6070 C.ar      1 TMP250     -0.0630
     15 C15        12.7100   15.0670   42.2860 C.ar      1 TMP250     -0.1210
     16 C16        14.6300   17.0700   42.5090 C.ar      1 TMP250      0.1510
     17 C17         8.9300   13.3730   39.7030 C.ar      1 TMP250      0.1600
     18 C18        10.9270   14.1170   40.8310 C.2       1 TMP250      0.5030
     19 C19        17.7420   17.4770   41.7960 C.2       1 TMP250      0.4610
     20 C20        17.0110   18.0660   42.9680 C.3       1 TMP250      0.0670
     21 N21         9.7790   13.4530   40.7880 N.am      1 TMP250     -0.6660
     22 O22        18.7300   16.7320   41.9980 O.co2     1 TMP250     -0.6950
     23 O23        11.2240   14.9520   39.9770 O.2       1 TMP250     -0.5090
     24 O24        17.3220   17.7300   40.6380 O.co2     1 TMP250     -0.6800
     25 O25        15.6060   18.1880   42.6240 O.3       1 TMP250     -0.3510
     26 H1          7.2600   16.5360   37.6840 H         1 TMP250      0.0720
     27 H2          8.3500   15.8370   36.4390 H         1 TMP250      0.0740
     28 H3          6.5930   15.4600   36.4100 H         1 TMP250      0.0660
     29 H4          6.7590   10.3320   37.6790 H         1 TMP250      0.0720
     30 H5          6.2900   10.4330   39.4100 H         1 TMP250      0.0670
     31 H6          5.2960   11.2560   38.1600 H         1 TMP250      0.0670
     32 H7         17.6740   19.6300   44.3030 H         1 TMP250      0.0550
     33 H8         18.5580   19.5560   42.7400 H         1 TMP250      0.0680
     34 H9         16.8880   20.2160   42.7970 H         1 TMP250      0.0650
     35 H10        17.4490   16.1680   43.9380 H         1 TMP250      0.0650
     36 H11        18.0790   17.6070   44.8060 H         1 TMP250      0.0620
     37 H12        16.3240   17.2270   44.8540 H         1 TMP250      0.0460
     38 H13        11.2950   16.5810   42.7870 H         1 TMP250      0.1190
     39 H14        14.3350   13.7550   41.8110 H         1 TMP250      0.1230
     40 H15        12.9780   18.3540   42.9850 H         1 TMP250      0.1260
     41 H16        16.0570   15.5380   42.0060 H         1 TMP250      0.1330
     42 H17         6.1300   13.2980   37.0600 H         1 TMP250      0.1210
     43 H18         9.3170   15.3770   39.0020 H         1 TMP250      0.1400
     44 H19         8.3200   11.3770   40.1710 H         1 TMP250      0.1240
     45 H20        12.2010   13.0750   42.2190 H         1 TMP250      0.1030
     46 H21        10.9790   14.2180   42.9680 H         1 TMP250      0.1010
     47 H22         9.5040   12.9670   41.6170 H         1 TMP250      0.4120
@<TRIPOS>BOND
     1    1   28 1
     2    1   27 1
     3    1   26 1
     4    1   13 1
     5    9   42 1
     6    2   29 1
     7    9   13 ar
     8    9   14 ar
     9   10   13 ar
    10    2   31 1
    11    2   14 1
    12    2   30 1
    13   11   14 ar
    14   10   43 1
    15   10   17 ar
    16   11   17 ar
    17   11   44 1
    18   17   21 1
    19   18   23 2
    20   19   24 1
    21   18   21 am
    22   21   47 1
    23   12   18 1
    24   19   22 2
    25   19   20 1
    26    6   39 1
    27    8   41 1
    28    6    8 ar
    29    6   15 ar
    30   12   45 1
    31   12   15 1
    32   12   46 1
    33    8   16 ar
    34    5   15 ar
    35   16   25 1
    36    7   16 ar
    37    5    7 ar
    38    5   38 1
    39   20   25 1
    40    7   40 1
    41    3   33 1
    42    3   34 1
    43    3   20 1
    44    4   20 1
    45    3   32 1
    46    4   35 1
    47    4   36 1
    48    4   37 1
@<TRIPOS>MOLECULE
header   -8.962
   47    48     0     0     0
SMALL
USER_CHARGES

@<TRIPOS>ATOM
      1 C1          7.4310   15.7990   36.9310 C.3       1 TMP254     -0.1180
      2 C2          6.3730   11.1320   38.4210 C.3       1 TMP254     -0.1160
      3 C3         17.2120   20.0730   43.3180 C.3       1 TMP254     -0.1230
      4 C4         16.9000   17.8340   44.3850 C.3       1 TMP254     -0.1490
      5 C5         12.0900   16.7950   42.6270 C.ar      1 TMP254     -0.0810
      6 C6         13.8600   15.2420   42.1830 C.ar      1 TMP254     -0.0800
      7 C7         13.0040   17.8220   42.7420 C.ar      1 TMP254     -0.1390
      8 C8         14.7980   16.2760   42.2970 C.ar      1 TMP254     -0.1470
      9 C9          6.9300   13.4770   37.7170 C.ar      1 TMP254     -0.1420
     10 C10         8.6450   14.7280   38.8330 C.ar      1 TMP254     -0.1370
     11 C11         8.1250   12.4790   39.5390 C.ar      1 TMP254     -0.1600
     12 C12        11.5400   14.4690   42.2160 C.3       1 TMP254     -0.0840
     13 C13         7.6730   14.6430   37.8490 C.ar      1 TMP254     -0.0600
     14 C14         7.1640   12.3970   38.5660 C.ar      1 TMP254     -0.0630
     15 C15        12.5110   15.5120   42.3480 C.ar      1 TMP254     -0.1210
     16 C16        14.3640   17.5750   42.5780 C.ar      1 TMP254      0.1510
     17 C17         8.8720   13.6370   39.6880 C.ar      1 TMP254      0.1600
     18 C18        10.8070   14.4710   40.8610 C.2       1 TMP254      0.5030
     19 C19        17.4870   18.0520   41.9590 C.2       1 TMP254      0.4610
     20 C20        16.6990   18.6520   43.0880 C.3       1 TMP254      0.0670
     21 N21         9.6800   13.7730   40.7990 N.am      1 TMP254     -0.6660
     22 O22        18.4880   17.3420   42.2170 O.co2     1 TMP254     -0.6950
     23 O23        11.1100   15.2890   39.9940 O.2       1 TMP254     -0.5090
     24 O24        17.1010   18.2610   40.7810 O.co2     1 TMP254     -0.6800
     25 O25        15.3040   18.7240   42.6930 O.3       1 TMP254     -0.3510
     26 H1          7.1860   16.6930   37.5220 H         1 TMP254      0.0720
     27 H2          8.3370   15.9910   36.3360 H         1 TMP254      0.0740
     28 H3          6.5930   15.5630   36.2580 H         1 TMP254      0.0660
     29 H4          6.8580   10.4790   37.6810 H         1 TMP254      0.0720
     30 H5          6.3270   10.6150   39.3900 H         1 TMP254      0.0670
     31 H6          5.3550   11.3740   38.0840 H         1 TMP254      0.0670
     32 H7         17.2720   20.2710   44.3990 H         1 TMP254      0.0550
     33 H8         18.2110   20.1790   42.8700 H         1 TMP254      0.0680
     34 H9         16.5220   20.7920   42.8510 H         1 TMP254      0.0650
     35 H10        17.1560   16.7950   44.1280 H         1 TMP254      0.0650
     36 H11        17.7150   18.2760   44.9750 H         1 TMP254      0.0620
     37 H12        15.9710   17.8470   44.9740 H         1 TMP254      0.0460
     38 H13        11.0370   16.9980   42.7560 H         1 TMP254      0.1190
     39 H14        14.1870   14.2350   41.9670 H         1 TMP254      0.1230
     40 H15        12.6620   18.8230   42.9600 H         1 TMP254      0.1260
     41 H16        15.8510   16.0710   42.1680 H         1 TMP254      0.1330
     42 H17         6.1690   13.4080   36.9550 H         1 TMP254      0.1210
     43 H18         9.2260   15.6320   38.9430 H         1 TMP254      0.1400
     44 H19         8.3020   11.6380   40.1930 H         1 TMP254      0.1240
     45 H20        12.0600   13.5050   42.3220 H         1 TMP254      0.1030
     46 H21        10.7810   14.6330   42.9950 H         1 TMP254      0.1010
     47 H22         9.3890   13.3020   41.6320 H         1 TMP254      0.4120
@<TRIPOS>BOND
     1    1   28 1
     2    1   27 1
     3    1   26 1
     4    1   13 1
     5    9   42 1
     6    2   29 1
     7    9   13 ar
     8    9   14 ar
     9   10   13 ar
    10    2   31 1
    11    2   14 1
    12    2   30 1
    13   11   14 ar
    14   10   43 1
    15   10   17 ar
    16   11   17 ar
    17   11   44 1
    18   17   21 1
    19   18   23 2
    20   19   24 1
    21   18   21 am
    22   21   47 1
    23   12   18 1
    24   19   22 2
    25   19   20 1
    26    6   39 1
    27    8   41 1
    28    6    8 ar
    29    6   15 ar
    30   12   45 1
    31   12   15 1
    32   12   46 1
    33    8   16 ar
    34    5   15 ar
    35   16   25 1
    36    7   16 ar
    37    5    7 ar
    38    5   38 1
    39   20   25 1
    40    7   40 1
    41    3   34 1
    42    3   33 1
    43    3   20 1
    44    4   20 1
    45    3   32 1
    46    4   35 1
    47    4   37 1
    48    4   36 1
@<TRIPOS>MOLECULE
header  -15.650
   47    48     0     0     0
SMALL
USER_CHARGES

@<TRIPOS>ATOM
      1 C1          7.6070   16.8190   36.3880 C.3       1 TMP256     -0.1180
      2 C2          5.4770   12.5860   38.0190 C.3       1 TMP256     -0.1160
      3 C3         17.7620   19.2240   43.1590 C.3       1 TMP256     -0.1230
      4 C4         16.9120   17.1710   44.3030 C.3       1 TMP256     -0.1490
      5 C5         12.0850   17.1030   42.3060 C.ar      1 TMP256     -0.0810
      6 C6         13.4890   15.1790   42.0390 C.ar      1 TMP256     -0.0800
      7 C7         13.1950   17.9110   42.4300 C.ar      1 TMP256     -0.1390
      8 C8         14.6250   15.9900   42.1640 C.ar      1 TMP256     -0.1470
      9 C9          6.5690   14.7100   37.2460 C.ar      1 TMP256     -0.1420
     10 C10         8.4600   15.6200   38.4070 C.ar      1 TMP256     -0.1370
     11 C11         7.4240   13.5820   39.1790 C.ar      1 TMP256     -0.1600
     12 C12        11.0580   14.9310   41.9670 C.3       1 TMP256     -0.0840
     13 C13         7.5430   15.6920   37.3710 C.ar      1 TMP256     -0.0600
     14 C14         6.5180   13.6550   38.1550 C.ar      1 TMP256     -0.0630
     15 C15        12.2260   15.7450   42.1100 C.ar      1 TMP256     -0.1210
     16 C16        14.4740   17.3660   42.3600 C.ar      1 TMP256      0.1510
     17 C17         8.3990   14.5570   39.3220 C.ar      1 TMP256      0.1600
     18 C18        10.4100   15.0150   40.5710 C.2       1 TMP256      0.5030
     19 C19        17.6520   17.1170   41.9110 C.2       1 TMP256      0.4610
     20 C20        16.9610   17.9370   42.9620 C.3       1 TMP256      0.0670
     21 N21         9.1620   14.5760   40.4720 N.am      1 TMP256     -0.6660
     22 O22        18.4580   16.2230   42.2600 O.co2     1 TMP256     -0.6950
     23 O23        10.9280   15.6980   39.6890 O.2       1 TMP256     -0.5090
     24 O24        17.3790   17.3370   40.7030 O.co2     1 TMP256     -0.6800
     25 O25        15.6370   18.2880   42.4800 O.3       1 TMP256     -0.3510
     26 H1          7.5350   17.7770   36.9230 H         1 TMP256      0.0720
     27 H2          8.5610   16.7760   35.8410 H         1 TMP256      0.0740
     28 H3          6.7720   16.7330   35.6770 H         1 TMP256      0.0660
     29 H4          5.8420   11.8020   37.3390 H         1 TMP256      0.0720
     30 H5          5.2700   12.1480   39.0060 H         1 TMP256      0.0670
     31 H6          4.5540   13.0240   37.6110 H         1 TMP256      0.0670
     32 H7         17.8100   19.4660   44.2310 H         1 TMP256      0.0550
     33 H8         18.7800   19.0850   42.7680 H         1 TMP256      0.0680
     34 H9         17.2710   20.0480   42.6190 H         1 TMP256      0.0650
     35 H10        16.9460   16.0880   44.1090 H         1 TMP256      0.0650
     36 H11        17.7750   17.4580   44.9210 H         1 TMP256      0.0620
     37 H12        15.9810   17.4190   44.8340 H         1 TMP256      0.0460
     38 H13        11.0970   17.5360   42.3620 H         1 TMP256      0.1190
     39 H14        13.5970   14.1150   41.8890 H         1 TMP256      0.1230
     40 H15        13.0710   18.9740   42.5820 H         1 TMP256      0.1260
     41 H16        15.6120   15.5550   42.1090 H         1 TMP256      0.1330
     42 H17         5.8500   14.7640   36.4430 H         1 TMP256      0.1210
     43 H18         9.2200   16.3810   38.5110 H         1 TMP256      0.1400
     44 H19         7.3790   12.7610   39.8800 H         1 TMP256      0.1240
     45 H20        11.3470   13.8860   42.1470 H         1 TMP256      0.1030
     46 H21        10.3160   15.3010   42.6910 H         1 TMP256      0.1010
     47 H22         8.7340   14.2290   41.3060 H         1 TMP256      0.4120
@<TRIPOS>BOND
     1    1   28 1
     2    1   27 1
     3    1   26 1
     4    1   13 1
     5    9   42 1
     6    9   13 ar
     7    9   14 ar
     8    2   29 1
     9   10   13 ar
    10    2   31 1
    11    2   14 1
    12    2   30 1
    13   11   14 ar
    14   10   43 1
    15   10   17 ar
    16   11   17 ar
    17   11   44 1
    18   17   21 1
    19   18   23 2
    20   18   21 am
    21   21   47 1
    22   12   18 1
    23   19   24 1
    24    6   39 1
    25   19   22 2
    26   19   20 1
    27   12   15 1
    28   12   45 1
    29   12   46 1
    30    6   15 ar
    31    6    8 ar
    32    8   41 1
    33    5   15 ar
    34    8   16 ar
    35    5   38 1
    36    5    7 ar
    37    7   16 ar
    38   16   25 1
    39    7   40 1
    40   20   25 1
    41    3   34 1
    42    3   33 1
    43    3   20 1
    44    4   20 1
    45    3   32 1
    46    4   35 1
    47    4   37 1
    48    4   36 1
@<TRIPOS>MOLECULE
header  -16.391
   47    48     0     0     0
SMALL
USER_CHARGES

@<TRIPOS>ATOM
      1 C1          9.1430   12.3810   37.9380 C.3       1 TMP258     -0.1180
      2 C2         11.2200    7.9050   37.0630 C.3       1 TMP258     -0.1160
      3 C3         17.5460   19.8910   43.2050 C.3       1 TMP258     -0.1230
      4 C4         18.8570   17.7690   43.0340 C.3       1 TMP258     -0.1490
      5 C5         14.9020   14.4760   42.1330 C.ar      1 TMP258     -0.0810
      6 C6         16.7230   14.5710   40.5790 C.ar      1 TMP258     -0.0800
      7 C7         15.1660   15.7670   42.5400 C.ar      1 TMP258     -0.1390
      8 C8         17.0020   15.8840   40.9840 C.ar      1 TMP258     -0.1470
      9 C9         10.2170   10.1580   37.5350 C.ar      1 TMP258     -0.1420
     10 C10        11.4570   11.8410   38.7080 C.ar      1 TMP258     -0.1370
     11 C11        12.4450    9.6810   38.2780 C.ar      1 TMP258     -0.1600
     12 C12        15.3650   12.5450   40.7410 C.3       1 TMP258     -0.0840
     13 C13        10.2980   11.4390   38.0650 C.ar      1 TMP258     -0.0600
     14 C14        11.2980    9.2840   37.6440 C.ar      1 TMP258     -0.0630
     15 C15        15.6720   13.8790   41.1580 C.ar      1 TMP258     -0.1210
     16 C16        16.2160   16.4840   41.9720 C.ar      1 TMP258      0.1510
     17 C17        12.5410   10.9540   38.8180 C.ar      1 TMP258      0.1600
     18 C18        14.1650   12.4550   39.7790 C.2       1 TMP258      0.5030
     19 C19        18.0280   18.9570   40.9910 C.2       1 TMP258      0.4610
     20 C20        17.7070   18.5940   42.4120 C.3       1 TMP258      0.0670
     21 N21        13.6160   11.2570   39.6300 N.am      1 TMP258     -0.6660
     22 O22        19.2260   18.9950   40.6210 O.co2     1 TMP258     -0.6950
     23 O23        13.5970   13.4790   39.4010 O.2       1 TMP258     -0.5090
     24 O24        17.0760   19.1880   40.2020 O.co2     1 TMP258     -0.6800
     25 O25        16.4430   17.8800   42.4350 O.3       1 TMP258     -0.3510
     26 H1          8.8340   12.7190   38.9380 H         1 TMP258      0.0720
     27 H2          9.4450   13.2510   37.3350 H         1 TMP258      0.0740
     28 H3          8.3030   11.8670   37.4480 H         1 TMP258      0.0660
     29 H4         11.5260    7.9330   36.0070 H         1 TMP258      0.0720
     30 H5         11.8900    7.2340   37.6210 H         1 TMP258      0.0670
     31 H6         10.1870    7.5350   37.1350 H         1 TMP258      0.0670
     32 H7         18.0200   19.7780   44.1920 H         1 TMP258      0.0550
     33 H8         18.0270   20.7160   42.6600 H         1 TMP258      0.0680
     34 H9         16.4760   20.1100   43.3350 H         1 TMP258      0.0650
     35 H10        19.4030   17.2410   42.2380 H         1 TMP258      0.0650
     36 H11        19.5460   18.4430   43.5650 H         1 TMP258      0.0620
     37 H12        18.4420   17.0370   43.7420 H         1 TMP258      0.0460
     38 H13        14.0850   13.9290   42.5810 H         1 TMP258      0.1190
     39 H14        17.3270   14.1000   39.8170 H         1 TMP258      0.1230
     40 H15        14.5550   16.2250   43.3050 H         1 TMP258      0.1260
     41 H16        17.8200   16.4280   40.5350 H         1 TMP258      0.1330
     42 H17         9.3150    9.8380   37.0370 H         1 TMP258      0.1210
     43 H18        11.5280   12.8360   39.1240 H         1 TMP258      0.1400
     44 H19        13.2780    9.0000   38.3590 H         1 TMP258      0.1240
     45 H20        16.2470   12.1380   40.2250 H         1 TMP258      0.1030
     46 H21        15.0980   11.9770   41.6450 H         1 TMP258      0.1010
     47 H22        14.0160   10.5040   40.1520 H         1 TMP258      0.4120
@<TRIPOS>BOND
     1    2   29 1
     2    9   42 1
     3    2   31 1
     4    2   30 1
     5    2   14 1
     6    1   27 1
     7    1   28 1
     8    9   14 ar
     9    9   13 ar
    10   11   14 ar
    11    1   13 1
    12    1   26 1
    13   10   13 ar
    14   11   44 1
    15   11   17 ar
    16   10   17 ar
    17   10   43 1
    18   17   21 1
    19   18   23 2
    20   18   21 am
    21   21   47 1
    22   12   18 1
    23    6   39 1
    24   19   24 1
    25   12   45 1
    26    8   41 1
    27    6    8 ar
    28    6   15 ar
    29   19   22 2
    30   12   15 1
    31   12   46 1
    32    8   16 ar
    33   19   20 1
    34    5   15 ar
    35   16   25 1
    36    7   16 ar
    37    5    7 ar
    38    5   38 1
    39    4   35 1
    40   20   25 1
    41    4   20 1
    42    3   20 1
    43    7   40 1
    44    3   33 1
    45    4   36 1
    46    4   37 1
    47    3   34 1
    48    3   32 1
@<TRIPOS>MOLECULE
header  -16.329
   47    48     0     0     0
SMALL
USER_CHARGES

@<TRIPOS>ATOM
      1 C1          9.4860   12.0730   38.0940 C.3       1 TMP259     -0.1180
      2 C2         11.7400    7.6050   37.8240 C.3       1 TMP259     -0.1160
      3 C3         17.2950   20.3590   43.1040 C.3       1 TMP259     -0.1230
      4 C4         18.6730   18.2770   43.2390 C.3       1 TMP259     -0.1490
      5 C5         14.8810   14.7770   42.4220 C.ar      1 TMP259     -0.0810
      6 C6         16.8020   14.7770   40.9900 C.ar      1 TMP259     -0.0800
      7 C7         15.0800   16.1110   42.7110 C.ar      1 TMP259     -0.1390
      8 C8         17.0160   16.1320   41.2760 C.ar      1 TMP259     -0.1470
      9 C9         10.6460    9.8580   37.9940 C.ar      1 TMP259     -0.1420
     10 C10        11.7550   11.6930   39.0670 C.ar      1 TMP259     -0.1370
     11 C11        12.8280    9.5360   38.9280 C.ar      1 TMP259     -0.1600
     12 C12        15.4920   12.7310   41.2700 C.3       1 TMP259     -0.0840
     13 C13        10.6550   11.1880   38.3940 C.ar      1 TMP259     -0.0600
     14 C14        11.7400    9.0370   38.2640 C.ar      1 TMP259     -0.0630
     15 C15        15.7320   14.1100   41.5670 C.ar      1 TMP259     -0.1210
     16 C16        16.1470   16.8020   42.1420 C.ar      1 TMP259      0.1510
     17 C17        12.8520   10.8590   39.3390 C.ar      1 TMP259      0.1600
     18 C18        14.3640   12.5050   40.2450 C.2       1 TMP259      0.5030
     19 C19        17.9550   19.2240   41.0340 C.2       1 TMP259      0.4610
     20 C20        17.5460   18.9950   42.4610 C.3       1 TMP259      0.0670
     21 N21        13.8590   11.2790   40.1840 N.am      1 TMP259     -0.6660
     22 O22        19.1740   19.2650   40.7420 O.co2     1 TMP259     -0.6950
     23 O23        13.7960   13.4650   39.7270 O.2       1 TMP259     -0.5090
     24 O24        17.0540   19.3410   40.1640 O.co2     1 TMP259     -0.6800
     25 O25        16.3040   18.2450   42.4730 O.3       1 TMP259     -0.3510
     26 H1          9.0990   12.5000   39.0310 H         1 TMP259      0.0720
     27 H2          9.8050   12.8870   37.4250 H         1 TMP259      0.0740
     28 H3          8.6960   11.4840   37.6050 H         1 TMP259      0.0660
     29 H4         12.1180    7.5370   36.7930 H         1 TMP259      0.0720
     30 H5         12.3880    7.0170   38.4910 H         1 TMP259      0.0670
     31 H6         10.7150    7.2090   37.8650 H         1 TMP259      0.0670
     32 H7         17.7020   20.3630   44.1260 H         1 TMP259      0.0550
     33 H8         17.7900   21.1410   42.5090 H         1 TMP259      0.0680
     34 H9         16.2130   20.5540   43.1390 H         1 TMP259      0.0650
     35 H10        19.2860   17.6910   42.5390 H         1 TMP259      0.0650
     36 H11        19.3040   19.0240   43.7420 H         1 TMP259      0.0620
     37 H12        18.2300   17.6060   43.9900 H         1 TMP259      0.0460
     38 H13        14.0500   14.2500   42.8700 H         1 TMP259      0.1190
     39 H14        17.4690   14.2520   40.3230 H         1 TMP259      0.1230
     40 H15        14.4060   16.6220   43.3820 H         1 TMP259      0.1260
     41 H16        17.8480   16.6570   40.8290 H         1 TMP259      0.1330
     42 H17         9.7890    9.4590   37.4720 H         1 TMP259      0.1210
     43 H18        11.7700   12.7260   39.3820 H         1 TMP259      0.1400
     44 H19        13.6730    8.8950   39.1330 H         1 TMP259      0.1240
     45 H20        16.4180   12.3050   40.8590 H         1 TMP259      0.1030
     46 H21        15.1780   12.2490   42.2080 H         1 TMP259      0.1010
     47 H22        14.2430   10.5970   40.8070 H         1 TMP259      0.4120
@<TRIPOS>BOND
     1    2   29 1
     2    1   27 1
     3    9   42 1
     4    1   28 1
     5    2   31 1
     6    2   14 1
     7    2   30 1
     8    9   14 ar
     9    9   13 ar
    10    1   13 1
    11    1   26 1
    12   11   14 ar
    13   10   13 ar
    14   11   44 1
    15   11   17 ar
    16   10   17 ar
    17   10   43 1
    18   17   21 1
    19   18   23 2
    20   19   24 1
    21   18   21 am
    22   21   47 1
    23   12   18 1
    24    6   39 1
    25   19   22 2
    26    8   41 1
    27   12   45 1
    28    6    8 ar
    29    6   15 ar
    30   19   20 1
    31   12   15 1
    32   12   46 1
    33    8   16 ar
    34    5   15 ar
    35   16   25 1
    36    7   16 ar
    37    5    7 ar
    38    5   38 1
    39   20   25 1
    40    3   20 1
    41    4   20 1
    42    3   33 1
    43    4   35 1
    44    7   40 1
    45    3   34 1
    46    3   32 1
    47    4   36 1
    48    4   37 1
@<TRIPOS>MOLECULE
header  -11.545
   47    48     0     0     0
SMALL
USER_CHARGES

@<TRIPOS>ATOM
      1 C1          9.1630   12.3310   38.5690 C.3       1 TMP260     -0.1180
      2 C2         11.3900    8.0240   37.3010 C.3       1 TMP260     -0.1160
      3 C3         17.5940   20.0840   43.4220 C.3       1 TMP260     -0.1230
      4 C4         18.9970   18.0520   43.0340 C.3       1 TMP260     -0.1490
      5 C5         15.1590   14.5760   42.3310 C.ar      1 TMP260     -0.0810
      6 C6         16.8230   14.8430   40.6280 C.ar      1 TMP260     -0.0800
      7 C7         15.3890   15.8620   42.7750 C.ar      1 TMP260     -0.1390
      8 C8         17.0670   16.1510   41.0680 C.ar      1 TMP260     -0.1470
      9 C9         10.3140   10.1930   37.9670 C.ar      1 TMP260     -0.1420
     10 C10        11.5640   11.8940   39.1040 C.ar      1 TMP260     -0.1370
     11 C11        12.6230    9.8150   38.4860 C.ar      1 TMP260     -0.1600
     12 C12        15.5970   12.7360   40.8130 C.3       1 TMP260     -0.0840
     13 C13        10.3740   11.4520   38.5480 C.ar      1 TMP260     -0.0600
     14 C14        11.4460    9.3790   37.9380 C.ar      1 TMP260     -0.0630
     15 C15        15.8680   14.0660   41.2640 C.ar      1 TMP260     -0.1210
     16 C16        16.3420   16.6620   42.1500 C.ar      1 TMP260      0.1510
     17 C17        12.6990   11.0670   39.0750 C.ar      1 TMP260      0.1600
     18 C18        14.3210   12.6180   39.9580 C.2       1 TMP260      0.5030
     19 C19        17.9220   19.2750   41.1310 C.2       1 TMP260      0.4610
     20 C20        17.7520   18.8340   42.5560 C.3       1 TMP260      0.0670
     21 N21        13.8250   11.3970   39.8010 N.am      1 TMP260     -0.6660
     22 O22        19.0770   19.3990   40.6580 O.co2     1 TMP260     -0.6950
     23 O23        13.6660   13.6220   39.6820 O.2       1 TMP260     -0.5090
     24 O24        16.8910   19.4840   40.4410 O.co2     1 TMP260     -0.6800
     25 O25        16.5360   18.0480   42.6570 O.3       1 TMP260     -0.3510
     26 H1          8.9280   12.6080   39.6070 H         1 TMP260      0.0720
     27 H2          9.3610   13.2420   37.9830 H         1 TMP260      0.0740
     28 H3          8.3110   11.7900   38.1320 H         1 TMP260      0.0660
     29 H4         11.5970    8.1150   36.2250 H         1 TMP260      0.0720
     30 H5         12.1430    7.3700   37.7640 H         1 TMP260      0.0670
     31 H6         10.3890    7.5920   37.4470 H         1 TMP260      0.0670
     32 H7         18.1610   19.9580   44.3560 H         1 TMP260      0.0550
     33 H8         17.9780   20.9580   42.8750 H         1 TMP260      0.0680
     34 H9         16.5300   20.2360   43.6560 H         1 TMP260      0.0650
     35 H10        19.4950   17.5910   42.1680 H         1 TMP260      0.0650
     36 H11        19.6940   18.7410   43.5330 H         1 TMP260      0.0620
     37 H12        18.6880   17.2670   43.7400 H         1 TMP260      0.0460
     38 H13        14.4170   13.9640   42.8240 H         1 TMP260      0.1190
     39 H14        17.3790   14.4400   39.7940 H         1 TMP260      0.1230
     40 H15        14.8270   16.2500   43.6110 H         1 TMP260      0.1260
     41 H16        17.8090   16.7610   40.5760 H         1 TMP260      0.1330
     42 H17         9.3880    9.8420   37.5360 H         1 TMP260      0.1210
     43 H18        11.6180   12.8720   39.5590 H         1 TMP260      0.1400
     44 H19        13.4960    9.1800   38.4600 H         1 TMP260      0.1240
     45 H20        16.4490   12.4030   40.2020 H         1 TMP260      0.1030
     46 H21        15.4450   12.1150   41.7090 H         1 TMP260      0.1010
     47 H22        14.3120   10.6480   40.2490 H         1 TMP260      0.4120
@<TRIPOS>BOND
     1    2   29 1
     2    2   31 1
     3    2   30 1
     4    2   14 1
     5    9   42 1
     6    9   14 ar
     7   11   14 ar
     8    9   13 ar
     9    1   27 1
    10    1   28 1
    11   11   44 1
    12   11   17 ar
    13    1   13 1
    14   10   13 ar
    15    1   26 1
    16   10   17 ar
    17   17   21 1
    18   10   43 1
    19   18   23 2
    20    6   39 1
    21   18   21 am
    22   21   47 1
    23   12   18 1
    24   12   45 1
    25   19   24 1
    26    8   41 1
    27    6    8 ar
    28    6   15 ar
    29   19   22 2
    30   12   15 1
    31   12   46 1
    32    8   16 ar
    33   19   20 1
    34    5   15 ar
    35   16   25 1
    36    7   16 ar
    37    4   35 1
    38    5    7 ar
    39    5   38 1
    40   20   25 1
    41    4   20 1
    42    3   20 1
    43    7   40 1
    44    3   33 1
    45    4   36 1
    46    4   37 1
    47    3   34 1
    48    3   32 1
@<TRIPOS>MOLECULE
header  -15.513
   47    48     0     0     0
SMALL
USER_CHARGES

@<TRIPOS>ATOM
      1 C1          9.6520   11.6880   38.2740 C.3       1 TMP261     -0.1180
      2 C2         12.1950    7.3910   37.8430 C.3       1 TMP261     -0.1160
      3 C3         16.9670   20.3370   43.4140 C.3       1 TMP261     -0.1230
      4 C4         18.4830   18.3500   43.4700 C.3       1 TMP261     -0.1490
      5 C5         14.9210   14.6260   42.6040 C.ar      1 TMP261     -0.0810
      6 C6         16.8150   14.7950   41.1460 C.ar      1 TMP261     -0.0800
      7 C7         15.0360   15.9620   42.9280 C.ar      1 TMP261     -0.1390
      8 C8         16.9430   16.1540   41.4670 C.ar      1 TMP261     -0.1470
      9 C9         10.9550    9.5600   38.0930 C.ar      1 TMP261     -0.1420
     10 C10        11.9560   11.4340   39.2040 C.ar      1 TMP261     -0.1370
     11 C11        13.1690    9.3590   38.9880 C.ar      1 TMP261     -0.1600
     12 C12        15.6500   12.6600   41.3850 C.3       1 TMP261     -0.0840
     13 C13        10.8820   10.8760   38.5310 C.ar      1 TMP261     -0.0600
     14 C14        12.1060    8.8070   38.3240 C.ar      1 TMP261     -0.0630
     15 C15        15.8020   14.0430   41.7180 C.ar      1 TMP261     -0.1210
     16 C16        16.0450   16.7390   42.3650 C.ar      1 TMP261      0.1510
     17 C17        13.1110   10.6690   39.4360 C.ar      1 TMP261      0.1600
     18 C18        14.5230   12.3860   40.3690 C.2       1 TMP261      0.5030
     19 C19        17.6690   19.3070   41.3030 C.2       1 TMP261      0.4610
     20 C20        17.2990   19.0120   42.7280 C.3       1 TMP261      0.0670
     21 N21        14.1010   11.1320   40.2790 N.am      1 TMP261     -0.6660
     22 O22        18.8770   19.4390   40.9950 O.co2     1 TMP261     -0.6950
     23 O23        13.8840   13.3200   39.8870 O.2       1 TMP261     -0.5090
     24 O24        16.7490   19.3880   40.4490 O.co2     1 TMP261     -0.6800
     25 O25        16.1100   18.1790   42.7360 O.3       1 TMP261     -0.3510
     26 H1          9.2520   12.0610   39.2280 H         1 TMP261      0.0720
     27 H2          9.9050   12.5400   37.6250 H         1 TMP261      0.0740
     28 H3          8.8960   11.0610   37.7790 H         1 TMP261      0.0660
     29 H4         12.5610    7.3770   36.8060 H         1 TMP261      0.0720
     30 H5         12.8910    6.8290   38.4830 H         1 TMP261      0.0670
     31 H6         11.2000    6.9260   37.8870 H         1 TMP261      0.0670
     32 H7         17.3890   20.3400   44.4300 H         1 TMP261      0.0550
     33 H8         17.3990   21.1670   42.8350 H         1 TMP261      0.0680
     34 H9         15.8750   20.4570   43.4690 H         1 TMP261      0.0650
     35 H10        19.1230   17.8260   42.7450 H         1 TMP261      0.0650
     36 H11        19.0710   19.1230   43.9850 H         1 TMP261      0.0620
     37 H12        18.0980   17.6290   44.2060 H         1 TMP261      0.0460
     38 H13        14.1350   14.0320   43.0470 H         1 TMP261      0.1190
     39 H14        17.5060   14.3360   40.4540 H         1 TMP261      0.1230
     40 H15        14.3390   16.4070   43.6240 H         1 TMP261      0.1260
     41 H16        17.7300   16.7450   41.0240 H         1 TMP261      0.1330
     42 H17        10.1190    9.1180   37.5720 H         1 TMP261      0.1210
     43 H18        11.9070   12.4570   39.5480 H         1 TMP261      0.1400
     44 H19        14.0580    8.7710   39.1620 H         1 TMP261      0.1240
     45 H20        16.5960   12.3080   40.9480 H         1 TMP261      0.1030
     46 H21        15.3840   12.1310   42.3120 H         1 TMP261      0.1010
     47 H22        14.5390   10.4600   40.8760 H         1 TMP261      0.4120
@<TRIPOS>BOND
     1    2   29 1
     2    9   42 1
     3    1   27 1
     4    1   28 1
     5    2   31 1
     6    2   14 1
     7    2   30 1
     8    9   14 ar
     9    9   13 ar
    10    1   13 1
    11    1   26 1
    12   11   14 ar
    13   10   13 ar
    14   11   44 1
    15   11   17 ar
    16   10   17 ar
    17   10   43 1
    18   17   21 1
    19   18   23 2
    20   18   21 am
    21   21   47 1
    22   12   18 1
    23   19   24 1
    24    6   39 1
    25   12   45 1
    26   19   22 2
    27    8   41 1
    28    6    8 ar
    29    6   15 ar
    30   19   20 1
    31   12   15 1
    32   12   46 1
    33    8   16 ar
    34    5   15 ar
    35   16   25 1
    36    7   16 ar
    37    5    7 ar
    38    5   38 1
    39   20   25 1
    40    3   20 1
    41    4   20 1
    42    4   35 1
    43    3   33 1
    44    7   40 1
    45    3   34 1
    46    3   32 1
    47    4   36 1
    48    4   37 1
@<TRIPOS>MOLECULE
header  -11.414
   47    48     0     0     0
SMALL
USER_CHARGES

@<TRIPOS>ATOM
      1 C1          8.9920   11.7080   39.7250 C.3       1 TMP262     -0.1180
      2 C2         11.0700    7.1990   40.4120 C.3       1 TMP262     -0.1160
      3 C3         16.7970   20.5240   43.7370 C.3       1 TMP262     -0.1230
      4 C4         18.0740   18.4600   44.3370 C.3       1 TMP262     -0.1490
      5 C5         14.2010   14.9840   43.8830 C.ar      1 TMP262     -0.0810
      6 C6         16.2100   14.6700   42.6150 C.ar      1 TMP262     -0.0800
      7 C7         14.4370   16.3410   43.9440 C.ar      1 TMP262     -0.1390
      8 C8         16.4620   16.0480   42.6700 C.ar      1 TMP262     -0.1470
      9 C9         10.0620    9.4780   40.1010 C.ar      1 TMP262     -0.1420
     10 C10        11.1750   11.4420   40.9100 C.ar      1 TMP262     -0.1370
     11 C11        12.1640    9.2640   41.2320 C.ar      1 TMP262     -0.1600
     12 C12        14.8000   12.7480   43.1570 C.3       1 TMP262     -0.0840
     13 C13        10.1010   10.8570   40.2590 C.ar      1 TMP262     -0.0600
     14 C14        11.1010    8.6870   40.5900 C.ar      1 TMP262     -0.0630
     15 C15        15.0780   14.1500   43.2220 C.ar      1 TMP262     -0.1210
     16 C16        15.5660   16.8870   43.3400 C.ar      1 TMP262      0.1510
     17 C17        12.2160   10.6380   41.4030 C.ar      1 TMP262      0.1600
     18 C18        13.7330   12.3740   42.1100 C.2       1 TMP262      0.5030
     19 C19        17.5420   19.0170   41.9530 C.2       1 TMP262      0.4610
     20 C20        17.0320   19.0600   43.3650 C.3       1 TMP262      0.0670
     21 N21        13.1830   11.1730   42.2310 N.am      1 TMP262     -0.6660
     22 O22        18.7780   18.9700   41.7470 O.co2     1 TMP262     -0.6950
     23 O23        13.2400   13.2420   41.3910 O.2       1 TMP262     -0.5090
     24 O24        16.7060   19.0030   41.0140 O.co2     1 TMP262     -0.6800
     25 O25        15.7610   18.3610   43.4210 O.3       1 TMP262     -0.3510
     26 H1          8.5630   12.3070   40.5410 H         1 TMP262      0.0720
     27 H2          9.3870   12.3790   38.9470 H         1 TMP262      0.0740
     28 H3          8.2120   11.0640   39.2920 H         1 TMP262      0.0660
     29 H4         11.5110    6.9360   39.4390 H         1 TMP262      0.0720
     30 H5         11.6480    6.7210   41.2170 H         1 TMP262      0.0670
     31 H6         10.0290    6.8470   40.4480 H         1 TMP262      0.0670
     32 H7         17.1360   20.6990   44.7700 H         1 TMP262      0.0550
     33 H8         17.3620   21.1710   43.0510 H         1 TMP262      0.0680
     34 H9         15.7240   20.7540   43.6600 H         1 TMP262      0.0650
     35 H10        18.7070   17.7400   43.7980 H         1 TMP262      0.0650
     36 H11        18.7030   19.2660   44.7440 H         1 TMP262      0.0620
     37 H12        17.5560   17.9480   45.1610 H         1 TMP262      0.0460
     38 H13        13.3210   14.5700   44.3550 H         1 TMP262      0.1190
     39 H14        16.8970   14.0150   42.1000 H         1 TMP262      0.1230
     40 H15        13.7420   16.9840   44.4650 H         1 TMP262      0.1260
     41 H16        17.3420   16.4590   42.1980 H         1 TMP262      0.1330
     42 H17         9.2250    9.0170   39.5990 H         1 TMP262      0.1210
     43 H18        11.2120   12.5140   41.0370 H         1 TMP262      0.1400
     44 H19        12.9660    8.6450   41.6080 H         1 TMP262      0.1240
     45 H20        15.7330   12.2270   42.8950 H         1 TMP262      0.1030
     46 H21        14.4060   12.4510   44.1410 H         1 TMP262      0.1010
     47 H22        13.4960   10.6030   42.9900 H         1 TMP262      0.4120
@<TRIPOS>BOND
     1    1   27 1
     2    1   28 1
     3    2   29 1
     4    9   42 1
     5    1   13 1
     6    1   26 1
     7    9   13 ar
     8    9   14 ar
     9   10   13 ar
    10    2   31 1
    11    2   14 1
    12    2   30 1
    13   11   14 ar
    14   10   43 1
    15   10   17 ar
    16   19   24 1
    17   11   17 ar
    18   11   44 1
    19   18   23 2
    20   17   21 1
    21   19   22 2
    22   19   20 1
    23    6   39 1
    24   18   21 am
    25   12   18 1
    26    8   41 1
    27   21   47 1
    28    6    8 ar
    29    6   15 ar
    30    8   16 ar
    31   12   45 1
    32    3   33 1
    33   12   15 1
    34   12   46 1
    35    5   15 ar
    36   16   25 1
    37    7   16 ar
    38   20   25 1
    39    3   20 1
    40    4   20 1
    41    3   34 1
    42    3   32 1
    43    4   35 1
    44    5    7 ar
    45    5   38 1
    46    7   40 1
    47    4   36 1
    48    4   37 1
@<TRIPOS>MOLECULE
header  -17.658
   47    48     0     0     0
SMALL
USER_CHARGES

@<TRIPOS>ATOM
      1 C1         10.1830   10.5390   39.3260 C.3       1 TMP263     -0.1180
      2 C2         12.6640    7.4010   36.3060 C.3       1 TMP263     -0.1160
      3 C3         18.0240   19.1450   43.7060 C.3       1 TMP263     -0.1230
      4 C4         19.5890   17.7190   42.3780 C.3       1 TMP263     -0.1490
      5 C5         16.5190   13.5340   41.7810 C.ar      1 TMP263     -0.0810
      6 C6         17.4190   14.6110   39.8390 C.ar      1 TMP263     -0.0800
      7 C7         16.6230   14.7090   42.4960 C.ar      1 TMP263     -0.1390
      8 C8         17.5300   15.8110   40.5550 C.ar      1 TMP263     -0.1470
      9 C9         11.4650    8.9880   37.8390 C.ar      1 TMP263     -0.1420
     10 C10        12.6580   10.6920   39.0320 C.ar      1 TMP263     -0.1370
     11 C11        13.8400    9.1750   37.5730 C.ar      1 TMP263     -0.1600
     12 C12        16.7770   12.2550   39.7360 C.3       1 TMP263     -0.0840
     13 C13        11.4650   10.0610   38.7200 C.ar      1 TMP263     -0.0600
     14 C14        12.6590    8.5510   37.2670 C.ar      1 TMP263     -0.0630
     15 C15        16.9120   13.4810   40.4600 C.ar      1 TMP263     -0.1210
     16 C16        17.1280   15.8580   41.8930 C.ar      1 TMP263      0.1510
     17 C17        13.8580   10.2440   38.4550 C.ar      1 TMP263      0.1600
     18 C18        15.3370   11.9660   39.2680 C.2       1 TMP263      0.5030
     19 C19        17.7120   18.9640   41.2810 C.2       1 TMP263      0.4610
     20 C20        18.1260   18.2020   42.5080 C.3       1 TMP263      0.0670
     21 N21        15.0730   10.7170   38.9070 N.am      1 TMP263     -0.6660
     22 O22        18.5900   19.5040   40.5670 O.co2     1 TMP263     -0.6950
     23 O23        14.4410   12.7800   39.4850 O.2       1 TMP263     -0.5090
     24 O24        16.4890   19.0150   40.9920 O.co2     1 TMP263     -0.6800
     25 O25        17.2000   17.1020   42.7070 O.3       1 TMP263     -0.3510
     26 H1         10.2620   10.5130   40.4220 H         1 TMP263      0.0720
     27 H2          9.9840   11.5710   38.9980 H         1 TMP263      0.0740
     28 H3          9.3590    9.8850   39.0020 H         1 TMP263      0.0660
     29 H4         12.4720    7.7720   35.2890 H         1 TMP263      0.0720
     30 H5         13.6440    6.9030   36.3350 H         1 TMP263      0.0670
     31 H6         11.8790    6.6850   36.5890 H         1 TMP263      0.0670
     32 H7         18.8860   18.9890   44.3710 H         1 TMP263      0.0550
     33 H8         18.0170   20.1870   43.3530 H         1 TMP263      0.0680
     34 H9         17.0940   18.9380   44.2570 H         1 TMP263      0.0650
     35 H10        19.8470   17.6110   41.3140 H         1 TMP263      0.0650
     36 H11        20.2610   18.4550   42.8440 H         1 TMP263      0.0620
     37 H12        19.7010   16.7490   42.8830 H         1 TMP263      0.0460
     38 H13        16.1260   12.6480   42.2590 H         1 TMP263      0.1190
     39 H14        17.7290   14.5670   38.8060 H         1 TMP263      0.1230
     40 H15        16.3110   14.7370   43.5300 H         1 TMP263      0.1260
     41 H16        17.9250   16.6950   40.0760 H         1 TMP263      0.1330
     42 H17        10.5390    8.4910   37.5970 H         1 TMP263      0.1210
     43 H18        12.6660   11.5280   39.7170 H         1 TMP263      0.1400
     44 H19        14.7600    8.8320   37.1260 H         1 TMP263      0.1240
     45 H20        17.4200   12.3120   38.8460 H         1 TMP263      0.1030
     46 H21        17.0640   11.4420   40.4200 H         1 TMP263      0.1010
     47 H22        15.8230   10.0580   38.9680 H         1 TMP263      0.4120
@<TRIPOS>BOND
     1    2   29 1
     2    2   30 1
     3    2   31 1
     4    2   14 1
     5   11   44 1
     6   11   14 ar
     7    9   14 ar
     8   11   17 ar
     9    9   42 1
    10    9   13 ar
    11   17   21 1
    12   10   17 ar
    13   10   13 ar
    14    1   13 1
    15    6   39 1
    16   12   45 1
    17   21   47 1
    18   18   21 am
    19    1   27 1
    20    1   28 1
    21   10   43 1
    22   18   23 2
    23   12   18 1
    24    1   26 1
    25   12   46 1
    26   12   15 1
    27    6   15 ar
    28    6    8 ar
    29    8   41 1
    30    5   15 ar
    31    8   16 ar
    32   19   22 2
    33   19   24 1
    34   19   20 1
    35    4   35 1
    36    5   38 1
    37    5    7 ar
    38    7   16 ar
    39   16   25 1
    40    4   20 1
    41    4   36 1
    42    4   37 1
    43    7   40 1
    44   20   25 1
    45    3   20 1
    46    3   33 1
    47    3   34 1
    48    3   32 1
@<TRIPOS>MOLECULE
header   -9.523
   47    48     0     0     0
SMALL
USER_CHARGES

@<TRIPOS>ATOM
      1 C1          9.6430   11.5830   38.2660 C.3       1 TMP265     -0.1180
      2 C2         12.5950    7.5660   37.7460 C.3       1 TMP265     -0.1160
      3 C3         15.9500   20.6500   43.9890 C.3       1 TMP265     -0.1230
      4 C4         17.6460   18.8130   44.0140 C.3       1 TMP265     -0.1490
      5 C5         14.4810   14.8130   42.8820 C.ar      1 TMP265     -0.0810
      6 C6         16.3920   15.2220   41.4950 C.ar      1 TMP265     -0.0800
      7 C7         14.4590   16.1380   43.2640 C.ar      1 TMP265     -0.1390
      8 C8         16.3800   16.5710   41.8750 C.ar      1 TMP265     -0.1470
      9 C9         11.1480    9.5960   38.0420 C.ar      1 TMP265     -0.1420
     10 C10        11.9330   11.5070   39.2600 C.ar      1 TMP265     -0.1370
     11 C11        13.3440    9.5660   39.0000 C.ar      1 TMP265     -0.1600
     12 C12        15.4280   12.9780   41.6090 C.3       1 TMP265     -0.0840
     13 C13        10.9360   10.8790   38.5310 C.ar      1 TMP265     -0.0600
     14 C14        12.3570    8.9460   38.2800 C.ar      1 TMP265     -0.0630
     15 C15        15.4390   14.3540   42.0020 C.ar      1 TMP265     -0.1210
     16 C16        15.4050   17.0300   42.7660 C.ar      1 TMP265      0.1510
     17 C17        13.1480   10.8440   39.4990 C.ar      1 TMP265      0.1600
     18 C18        14.3630   12.6440   40.5470 C.2       1 TMP265      0.5030
     19 C19        16.8070   19.7830   41.8620 C.2       1 TMP265      0.4610
     20 C20        16.4260   19.3930   43.2610 C.3       1 TMP265      0.0670
     21 N21        14.0650   11.3600   40.3920 N.am      1 TMP265     -0.6660
     22 O22        18.0060   20.0410   41.6000 O.co2     1 TMP265     -0.6950
     23 O23        13.6520   13.5340   40.0820 O.2       1 TMP265     -0.5090
     24 O24        15.9090   19.8140   40.9820 O.co2     1 TMP265     -0.6800
     25 O25        15.3220   18.4520   43.1960 O.3       1 TMP265     -0.3510
     26 H1          9.1820   11.8750   39.2200 H         1 TMP265      0.0720
     27 H2          9.8320   12.4830   37.6600 H         1 TMP265      0.0740
     28 H3          8.9650   10.9100   37.7210 H         1 TMP265      0.0660
     29 H4         12.9900    7.6320   36.7210 H         1 TMP265      0.0720
     30 H5         13.3220    7.0460   38.3850 H         1 TMP265      0.0670
     31 H6         11.6470    7.0090   37.7380 H         1 TMP265      0.0670
     32 H7         16.3400   20.6480   45.0180 H         1 TMP265      0.0550
     33 H8         16.3180   21.5410   43.4580 H         1 TMP265      0.0680
     34 H9         14.8500   20.6650   44.0130 H         1 TMP265      0.0650
     35 H10        18.3540   18.3830   43.2900 H         1 TMP265      0.0650
     36 H11        18.1430   19.6150   44.5790 H         1 TMP265      0.0620
     37 H12        17.3100   18.0280   44.7080 H         1 TMP265      0.0460
     38 H13        13.7420   14.1290   43.2750 H         1 TMP265      0.1190
     39 H14        17.1430   14.8600   40.8090 H         1 TMP265      0.1230
     40 H15        13.7030   16.4850   43.9530 H         1 TMP265      0.1260
     41 H16        17.1200   17.2530   41.4830 H         1 TMP265      0.1330
     42 H17        10.3720    9.1010   37.4770 H         1 TMP265      0.1210
     43 H18        11.7760   12.5050   39.6440 H         1 TMP265      0.1400
     44 H19        14.2790    9.0560   39.1800 H         1 TMP265      0.1240
     45 H20        16.4160   12.7360   41.1900 H         1 TMP265      0.1030
     46 H21        15.1880   12.3870   42.5050 H         1 TMP265      0.1010
     47 H22        14.5480   10.7080   40.9760 H         1 TMP265      0.4120
@<TRIPOS>BOND
     1    2   29 1
     2    9   42 1
     3    1   27 1
     4    1   28 1
     5    2   31 1
     6    2   14 1
     7    2   30 1
     8    9   14 ar
     9    9   13 ar
    10    1   13 1
    11    1   26 1
    12   11   14 ar
    13   10   13 ar
    14   11   44 1
    15   11   17 ar
    16   10   17 ar
    17   10   43 1
    18   17   21 1
    19   18   23 2
    20   18   21 am
    21   21   47 1
    22   12   18 1
    23    6   39 1
    24   19   24 1
    25   12   45 1
    26    8   41 1
    27    6    8 ar
    28    6   15 ar
    29   19   22 2
    30   12   15 1
    31   12   46 1
    32   19   20 1
    33    8   16 ar
    34    5   15 ar
    35   16   25 1
    36    7   16 ar
    37    5    7 ar
    38    5   38 1
    39   20   25 1
    40    3   20 1
    41    4   20 1
    42    7   40 1
    43    4   35 1
    44    3   33 1
    45    3   34 1
    46    3   32 1
    47    4   36 1
    48    4   37 1
@<TRIPOS>MOLECULE
header   -0.756
   47    48     0     0     0
SMALL
USER_CHARGES

@<TRIPOS>ATOM
      1 C1          9.2790   12.1230   37.7820 C.3       1 TMP266     -0.1180
      2 C2         11.3720    7.5880   37.3630 C.3       1 TMP266     -0.1160
      3 C3         17.5240   20.0570   42.6630 C.3       1 TMP266     -0.1230
      4 C4         18.8340   17.9290   42.7180 C.3       1 TMP266     -0.1490
      5 C5         14.9020   14.5700   41.9710 C.ar      1 TMP266     -0.0810
      6 C6         16.7740   14.5320   40.4760 C.ar      1 TMP266     -0.0800
      7 C7         15.1560   15.8910   42.2750 C.ar      1 TMP266     -0.1390
      8 C8         17.0430   15.8740   40.7760 C.ar      1 TMP266     -0.1470
      9 C9         10.3600    9.8730   37.6070 C.ar      1 TMP266     -0.1420
     10 C10        11.5650   11.6510   38.6720 C.ar      1 TMP266     -0.1370
     11 C11        12.5610    9.4620   38.4620 C.ar      1 TMP266     -0.1600
     12 C12        15.4060   12.5260   40.7650 C.3       1 TMP266     -0.0840
     13 C13        10.4270   11.1940   38.0280 C.ar      1 TMP266     -0.0600
     14 C14        11.4340    9.0110   37.8260 C.ar      1 TMP266     -0.0630
     15 C15        15.7020   13.8910   41.0760 C.ar      1 TMP266     -0.1210
     16 C16        16.2250   16.5570   41.6820 C.ar      1 TMP266      0.1510
     17 C17        12.6420   10.7770   38.8930 C.ar      1 TMP266      0.1600
     18 C18        14.2380   12.3550   39.7750 C.2       1 TMP266      0.5030
     19 C19        18.0760   18.9370   40.5540 C.2       1 TMP266      0.4610
     20 C20        17.7070   18.6970   41.9900 C.3       1 TMP266      0.0670
     21 N21        13.6900   11.1480   39.7110 N.am      1 TMP266     -0.6660
     22 O22        19.2850   18.9430   40.2220 O.co2     1 TMP266     -0.6950
     23 O23        13.6850   13.3420   39.2930 O.2       1 TMP266     -0.5090
     24 O24        17.1510   19.0990   39.7170 O.co2     1 TMP266     -0.6800
     25 O25        16.4410   17.9880   42.0320 O.3       1 TMP266     -0.3510
     26 H1          8.9380   12.5450   38.7380 H         1 TMP266      0.0720
     27 H2          9.6030   12.9370   37.1170 H         1 TMP266      0.0740
     28 H3          8.4550   11.5680   37.3100 H         1 TMP266      0.0660
     29 H4         11.7130    7.5260   36.3190 H         1 TMP266      0.0720
     30 H5         12.0210    6.9670   37.9980 H         1 TMP266      0.0670
     31 H6         10.3360    7.2250   37.4320 H         1 TMP266      0.0670
     32 H7         17.9640   20.0290   43.6710 H         1 TMP266      0.0550
     33 H8         18.0250   20.8320   42.0650 H         1 TMP266      0.0680
     34 H9         16.4500   20.2860   42.7380 H         1 TMP266      0.0650
     35 H10        19.4040   17.3340   41.9880 H         1 TMP266      0.0650
     36 H11        19.5070   18.6450   43.2110 H         1 TMP266      0.0620
     37 H12        18.3940   17.2590   43.4710 H         1 TMP266      0.0460
     38 H13        14.0690   14.0630   42.4370 H         1 TMP266      0.1190
     39 H14        17.4010   13.9970   39.7770 H         1 TMP266      0.1230
     40 H15        14.5210   16.4120   42.9770 H         1 TMP266      0.1260
     41 H16        17.8760   16.3790   40.3100 H         1 TMP266      0.1330
     42 H17         9.4740    9.5110   37.1080 H         1 TMP266      0.1210
     43 H18        11.6250   12.6770   39.0030 H         1 TMP266      0.1400
     44 H19        13.3890    8.7900   38.6280 H         1 TMP266      0.1240
     45 H20        16.3030   12.0770   40.3160 H         1 TMP266      0.1030
     46 H21        15.1070   12.0380   41.7050 H         1 TMP266      0.1010
     47 H22        14.0720   10.4430   40.3090 H         1 TMP266      0.4120
@<TRIPOS>BOND
     1    2   29 1
     2    9   42 1
     3    1   27 1
     4    1   28 1
     5    2   31 1
     6    2   14 1
     7    2   30 1
     8    9   14 ar
     9    9   13 ar
    10    1   13 1
    11    1   26 1
    12   11   14 ar
    13   10   13 ar
    14   11   44 1
    15   11   17 ar
    16   10   17 ar
    17   10   43 1
    18   17   21 1
    19   18   23 2
    20   18   21 am
    21   21   47 1
    22   19   24 1
    23   12   18 1
    24    6   39 1
    25   19   22 2
    26    8   41 1
    27   12   45 1
    28    6    8 ar
    29    6   15 ar
    30   19   20 1
    31   12   15 1
    32   12   46 1
    33    8   16 ar
    34    5   15 ar
    35   16   25 1
    36    7   16 ar
    37    5    7 ar
    38    5   38 1
    39    4   35 1
    40   20   25 1
    41    3   20 1
    42    4   20 1
    43    3   33 1
    44    7   40 1
    45    3   34 1
    46    3   32 1
    47    4   36 1
    48    4   37 1
@<TRIPOS>MOLECULE
header  -19.209
   47    48     0     0     0
SMALL
USER_CHARGES

@<TRIPOS>ATOM
      1 C1          8.9130   12.2590   38.1180 C.3       1 TMP267     -0.1180
      2 C2         11.5360    8.1360   36.9990 C.3       1 TMP267     -0.1160
      3 C3         16.1700   20.2310   44.3250 C.3       1 TMP267     -0.1230
      4 C4         17.7290   18.2950   44.0520 C.3       1 TMP267     -0.1490
      5 C5         14.2260   14.6530   42.7210 C.ar      1 TMP267     -0.0810
      6 C6         16.0790   15.0830   41.2640 C.ar      1 TMP267     -0.0800
      7 C7         14.3200   15.9290   43.2380 C.ar      1 TMP267     -0.1390
      8 C8         16.1860   16.3810   41.7800 C.ar      1 TMP267     -0.1470
      9 C9         10.2570   10.2130   37.5960 C.ar      1 TMP267     -0.1420
     10 C10        11.2450   11.9270   38.9500 C.ar      1 TMP267     -0.1370
     11 C11        12.4960    9.9370   38.4020 C.ar      1 TMP267     -0.1600
     12 C12        14.9650   12.9070   41.2080 C.3       1 TMP267     -0.0840
     13 C13        10.1660   11.4480   38.2250 C.ar      1 TMP267     -0.0600
     14 C14        11.4280    9.4630   37.6870 C.ar      1 TMP267     -0.0630
     15 C15        15.0960   14.2290   41.7390 C.ar      1 TMP267     -0.1210
     16 C16        15.2980   16.8050   42.7740 C.ar      1 TMP267      0.1510
     17 C17        12.4210   11.1640   39.0420 C.ar      1 TMP267      0.1600
     18 C18        13.8200   12.7590   40.1880 C.2       1 TMP267      0.5030
     19 C19        16.8400   19.5410   42.0690 C.2       1 TMP267      0.4610
     20 C20        16.5130   19.0300   43.4430 C.3       1 TMP267      0.0670
     21 N21        13.4220   11.5220   39.9220 N.am      1 TMP267     -0.6660
     22 O22        18.0380   19.7470   41.7590 O.co2     1 TMP267     -0.6950
     23 O23        13.1490   13.7380   39.8640 O.2       1 TMP267     -0.5090
     24 O24        15.8980   19.7250   41.2580 O.co2     1 TMP267     -0.6800
     25 O25        15.3420   18.1760   43.3530 O.3       1 TMP267     -0.3510
     26 H1          8.5290   12.4760   39.1250 H         1 TMP267      0.0720
     27 H2          9.1320   13.2030   37.5970 H         1 TMP267      0.0740
     28 H3          8.1590   11.6930   37.5520 H         1 TMP267      0.0660
     29 H4         11.8750    8.2850   35.9640 H         1 TMP267      0.0720
     30 H5         12.2590    7.5040   37.5340 H         1 TMP267      0.0670
     31 H6         10.5510    7.6460   36.9950 H         1 TMP267      0.0670
     32 H7         16.6170   20.0930   45.3210 H         1 TMP267      0.0550
     33 H8         16.5700   21.1470   43.8660 H         1 TMP267      0.0680
     34 H9         15.0780   20.3140   44.4210 H         1 TMP267      0.0650
     35 H10        18.3620   17.8990   43.2440 H         1 TMP267      0.0650
     36 H11        18.3130   18.9970   44.6640 H         1 TMP267      0.0620
     37 H12        17.3770   17.4640   44.6820 H         1 TMP267      0.0460
     38 H13        13.4630   13.9820   43.0880 H         1 TMP267      0.1190
     39 H14        16.7620   14.7480   40.4970 H         1 TMP267      0.1230
     40 H15        13.6320   16.2490   44.0060 H         1 TMP267      0.1260
     41 H16        16.9490   17.0510   41.4130 H         1 TMP267      0.1330
     42 H17         9.4170    9.8330   37.0330 H         1 TMP267      0.1210
     43 H18        11.1830   12.8860   39.4430 H         1 TMP267      0.1400
     44 H19        13.4010    9.3510   38.4690 H         1 TMP267      0.1240
     45 H20        15.9070   12.6480   40.7040 H         1 TMP267      0.1030
     46 H21        14.7340   12.2410   42.0520 H         1 TMP267      0.1010
     47 H22        13.8890   10.7800   40.4030 H         1 TMP267      0.4120
@<TRIPOS>BOND
     1    2   29 1
     2    2   31 1
     3    2   30 1
     4    2   14 1
     5    9   42 1
     6    1   28 1
     7    9   14 ar
     8    9   13 ar
     9    1   27 1
    10   11   14 ar
    11    1   13 1
    12    1   26 1
    13   10   13 ar
    14   11   44 1
    15   11   17 ar
    16   10   17 ar
    17   10   43 1
    18   17   21 1
    19   18   23 2
    20   18   21 am
    21   21   47 1
    22   12   18 1
    23    6   39 1
    24   12   45 1
    25   12   15 1
    26   12   46 1
    27   19   24 1
    28    6   15 ar
    29    6    8 ar
    30    8   41 1
    31    5   15 ar
    32   19   22 2
    33    8   16 ar
    34   19   20 1
    35    5   38 1
    36    5    7 ar
    37    7   16 ar
    38   16   25 1
    39    7   40 1
    40    4   35 1
    41   20   25 1
    42    4   20 1
    43    3   20 1
    44    3   33 1
    45    4   36 1
    46    4   37 1
    47    3   34 1
    48    3   32 1
@<TRIPOS>MOLECULE
header   -9.497
   47    48     0     0     0
SMALL
USER_CHARGES

@<TRIPOS>ATOM
      1 C1          9.8320   11.1240   38.9170 C.3       1 TMP268     -0.1180
      2 C2         12.7320    7.6590   36.7480 C.3       1 TMP268     -0.1160
      3 C3         16.9970   19.8860   44.0780 C.3       1 TMP268     -0.1230
      4 C4         18.7350   18.3030   43.2250 C.3       1 TMP268     -0.1490
      5 C5         15.6660   14.1630   42.3640 C.ar      1 TMP268     -0.0810
      6 C6         16.9890   15.0340   40.5650 C.ar      1 TMP268     -0.0800
      7 C7         15.6750   15.3950   42.9840 C.ar      1 TMP268     -0.1390
      8 C8         17.0050   16.2910   41.1850 C.ar      1 TMP268     -0.1470
      9 C9         11.3200    9.4100   37.8620 C.ar      1 TMP268     -0.1420
     10 C10        12.3210   11.1840   39.1270 C.ar      1 TMP268     -0.1370
     11 C11        13.7040    9.5090   38.0760 C.ar      1 TMP268     -0.1600
     12 C12        16.2760   12.6960   40.5310 C.3       1 TMP268     -0.0840
     13 C13        11.1880   10.5590   38.6310 C.ar      1 TMP268     -0.0600
     14 C14        12.5840    8.8920   37.5870 C.ar      1 TMP268     -0.0630
     15 C15        16.3160   13.9800   41.1610 C.ar      1 TMP268     -0.1210
     16 C16        16.3420   16.4710   42.4030 C.ar      1 TMP268      0.1510
     17 C17        13.5910   10.6540   38.8500 C.ar      1 TMP268      0.1600
     18 C18        14.9500   12.4030   39.8030 C.2       1 TMP268      0.5030
     19 C19        17.1760   19.4910   41.6650 C.2       1 TMP268      0.4610
     20 C20        17.2990   18.8340   43.0100 C.3       1 TMP268      0.0670
     21 N21        14.7090   11.1340   39.5010 N.am      1 TMP268     -0.6660
     22 O22        18.2030   19.9400   41.1040 O.co2     1 TMP268     -0.6950
     23 O23        14.0650   13.2570   39.7600 O.2       1 TMP268     -0.5090
     24 O24        16.0410   19.5470   41.1270 O.co2     1 TMP268     -0.6800
     25 O25        16.3030   17.7820   43.1060 O.3       1 TMP268     -0.3510
     26 H1          9.6870   11.1960   40.0050 H         1 TMP268      0.0720
     27 H2          9.7500   12.1260   38.4700 H         1 TMP268      0.0740
     28 H3          9.0630   10.4650   38.4870 H         1 TMP268      0.0660
     29 H4         12.7670    7.9390   35.6860 H         1 TMP268      0.0720
     30 H5         13.6630    7.1400   37.0210 H         1 TMP268      0.0670
     31 H6         11.8760    6.9920   36.9230 H         1 TMP268      0.0670
     32 H7         17.6990   19.7680   44.9170 H         1 TMP268      0.0550
     33 H8         17.1090   20.8900   43.6440 H         1 TMP268      0.0680
     34 H9         15.9670   19.7540   44.4410 H         1 TMP268      0.0650
     35 H10        19.1980   18.0910   42.2500 H         1 TMP268      0.0650
     36 H11        19.3300   19.0610   43.7560 H         1 TMP268      0.0620
     37 H12        18.6990   17.3800   43.8230 H         1 TMP268      0.0460
     38 H13        15.1450   13.3360   42.8230 H         1 TMP268      0.1190
     39 H14        17.4990   14.8880   39.6250 H         1 TMP268      0.1230
     40 H15        15.1610   15.5270   43.9250 H         1 TMP268      0.1260
     41 H16        17.5270   17.1170   40.7250 H         1 TMP268      0.1330
     42 H17        10.4400    8.9170   37.4770 H         1 TMP268      0.1210
     43 H18        12.2270   12.0780   39.7270 H         1 TMP268      0.1400
     44 H19        14.6810    9.1030   37.8590 H         1 TMP268      0.1240
     45 H20        17.0880   12.6550   39.7910 H         1 TMP268      0.1030
     46 H21        16.3820   11.9420   41.3250 H         1 TMP268      0.1010
     47 H22        15.4010   10.4630   39.7700 H         1 TMP268      0.4120
@<TRIPOS>BOND
     1    2   29 1
     2    2   31 1
     3    2   30 1
     4    2   14 1
     5    9   42 1
     6    9   14 ar
     7   11   14 ar
     8   11   44 1
     9    9   13 ar
    10   11   17 ar
    11    1   27 1
    12    1   28 1
    13    1   13 1
    14   10   13 ar
    15   10   17 ar
    16   17   21 1
    17    1   26 1
    18   10   43 1
    19   21   47 1
    20   18   21 am
    21    6   39 1
    22   18   23 2
    23   12   45 1
    24   12   18 1
    25   12   15 1
    26   12   46 1
    27    6   15 ar
    28    6    8 ar
    29    8   41 1
    30   19   22 2
    31   19   24 1
    32    5   15 ar
    33    8   16 ar
    34   19   20 1
    35    4   35 1
    36    5   38 1
    37    5    7 ar
    38    7   16 ar
    39   16   25 1
    40    7   40 1
    41   20   25 1
    42    4   20 1
    43    3   20 1
    44    4   36 1
    45    4   37 1
    46    3   33 1
    47    3   34 1
    48    3   32 1
@<TRIPOS>MOLECULE
header  -17.688
   47    48     0     0     0
SMALL
USER_CHARGES

@<TRIPOS>ATOM
      1 C1          9.9020   11.1290   38.4100 C.3       1 TMP269     -0.1180
      2 C2         12.4550    7.6430   35.8700 C.3       1 TMP269     -0.1160
      3 C3         17.8700   19.1960   43.5270 C.3       1 TMP269     -0.1230
      4 C4         19.4560   17.5750   42.4770 C.3       1 TMP269     -0.1490
      5 C5         16.1090   13.6580   41.6080 C.ar      1 TMP269     -0.0810
      6 C6         17.3600   14.5570   39.7730 C.ar      1 TMP269     -0.0800
      7 C7         16.2280   14.8510   42.2900 C.ar      1 TMP269     -0.1390
      8 C8         17.4880   15.7750   40.4550 C.ar      1 TMP269     -0.1470
      9 C9         11.2190    9.4020   37.1680 C.ar      1 TMP269     -0.1420
     10 C10        12.3980   11.0470   38.4530 C.ar      1 TMP269     -0.1370
     11 C11        13.6140    9.3620   37.2240 C.ar      1 TMP269     -0.1600
     12 C12        16.5150   12.2660   39.6630 C.3       1 TMP269     -0.0840
     13 C13        11.2030   10.5110   38.0030 C.ar      1 TMP269     -0.0600
     14 C14        12.4320    8.8330   36.7800 C.ar      1 TMP269     -0.0630
     15 C15        16.6690   13.5080   40.3570 C.ar      1 TMP269     -0.1210
     16 C16        16.9160   15.9200   41.7230 C.ar      1 TMP269      0.1510
     17 C17        13.6160   10.4660   38.0630 C.ar      1 TMP269      0.1600
     18 C18        15.1310   12.0850   39.0120 C.2       1 TMP269      0.5030
     19 C19        17.8700   18.9290   41.0900 C.2       1 TMP269      0.4610
     20 C20        18.0420   18.1920   42.3870 C.3       1 TMP269      0.0670
     21 N21        14.8000   10.8490   38.6610 N.am      1 TMP269     -0.6660
     22 O22        18.8820   19.3540   40.4850 O.co2     1 TMP269     -0.6950
     23 O23        14.2950   12.9850   39.0750 O.2       1 TMP269     -0.5090
     24 O24        16.7070   19.0750   40.6340 O.co2     1 TMP269     -0.6800
     25 O25        16.9960   17.1900   42.4950 O.3       1 TMP269     -0.3510
     26 H1          9.8320   11.1480   39.5070 H         1 TMP269      0.0720
     27 H2          9.8480   12.1580   38.0220 H         1 TMP269      0.0740
     28 H3          9.0710   10.5380   37.9980 H         1 TMP269      0.0660
     29 H4         12.4370    7.9810   34.8230 H         1 TMP269      0.0720
     30 H5         13.3710    7.0620   36.0510 H         1 TMP269      0.0670
     31 H6         11.5750    7.0140   36.0670 H         1 TMP269      0.0670
     32 H7         18.6170   18.9950   44.3090 H         1 TMP269      0.0550
     33 H8         18.0100   20.2160   43.1400 H         1 TMP269      0.0680
     34 H9         16.8590   19.0990   43.9510 H         1 TMP269      0.0650
     35 H10        19.8430   17.3930   41.4630 H         1 TMP269      0.0650
     36 H11        20.1270   18.2690   43.0040 H         1 TMP269      0.0620
     37 H12        19.4070   16.6230   43.0260 H         1 TMP269      0.0460
     38 H13        15.5730   12.8340   42.0580 H         1 TMP269      0.1190
     39 H14        17.7990   14.4370   38.7940 H         1 TMP269      0.1230
     40 H15        15.7850   14.9560   43.2690 H         1 TMP269      0.1260
     41 H16        18.0250   16.5960   40.0040 H         1 TMP269      0.1330
     42 H17        10.2900    8.9780   36.8170 H         1 TMP269      0.1210
     43 H18        12.3940   11.9090   39.1040 H         1 TMP269      0.1400
     44 H19        14.5500    8.9180   36.9200 H         1 TMP269      0.1240
     45 H20        17.2740   12.2230   38.8690 H         1 TMP269      0.1030
     46 H21        16.6300   11.4640   40.4080 H         1 TMP269      0.1010
     47 H22        15.4680   10.1290   38.8470 H         1 TMP269      0.4120
@<TRIPOS>BOND
     1    2   29 1
     2    2   30 1
     3    2   31 1
     4    2   14 1
     5    9   14 ar
     6   11   14 ar
     7    9   42 1
     8   11   44 1
     9    9   13 ar
    10   11   17 ar
    11    1   28 1
    12    1   13 1
    13   10   13 ar
    14    1   27 1
    15   10   17 ar
    16   17   21 1
    17    1   26 1
    18   10   43 1
    19   21   47 1
    20   18   21 am
    21    6   39 1
    22   12   45 1
    23   18   23 2
    24   12   18 1
    25   12   15 1
    26   12   46 1
    27    6   15 ar
    28    6    8 ar
    29    8   41 1
    30    5   15 ar
    31    8   16 ar
    32   19   22 2
    33   19   24 1
    34   19   20 1
    35    4   35 1
    36    5   38 1
    37    5    7 ar
    38    7   16 ar
    39   16   25 1
    40    7   40 1
    41    4   20 1
    42   20   25 1
    43    3   20 1
    44    4   36 1
    45    4   37 1
    46    3   33 1
    47    3   34 1
    48    3   32 1
@<TRIPOS>MOLECULE
header  -15.355
   47    48     0     0     0
SMALL
USER_CHARGES

@<TRIPOS>ATOM
      1 C1          9.0750   12.1480   38.7940 C.3       1 TMP270     -0.1180
      2 C2         11.2760    8.1880   36.6520 C.3       1 TMP270     -0.1160
      3 C3         17.7770   19.6440   43.5730 C.3       1 TMP270     -0.1230
      4 C4         19.1920   17.7660   42.7230 C.3       1 TMP270     -0.1490
      5 C5         15.4330   14.2040   42.0340 C.ar      1 TMP270     -0.0810
      6 C6         16.8400   14.7940   40.1860 C.ar      1 TMP270     -0.0800
      7 C7         15.6710   15.4280   42.6220 C.ar      1 TMP270     -0.1390
      8 C8         17.0900   16.0420   40.7730 C.ar      1 TMP270     -0.1470
      9 C9         10.2160   10.1810   37.7510 C.ar      1 TMP270     -0.1420
     10 C10        11.5410   11.7810   38.9480 C.ar      1 TMP270     -0.1370
     11 C11        12.5870    9.8700   37.9110 C.ar      1 TMP270     -0.1600
     12 C12        15.7330   12.6140   40.2270 C.3       1 TMP270     -0.0840
     13 C13        10.3050   11.3520   38.4930 C.ar      1 TMP270     -0.0600
     14 C14        11.3640    9.4450   37.4620 C.ar      1 TMP270     -0.0630
     15 C15        16.0100   13.8840   40.8230 C.ar      1 TMP270     -0.1210
     16 C16        16.4990   16.3590   42.0000 C.ar      1 TMP270      0.1510
     17 C17        12.6930   11.0330   38.6570 C.ar      1 TMP270      0.1600
     18 C18        14.3580   12.5400   39.5350 C.2       1 TMP270      0.5030
     19 C19        17.8230   19.1730   41.1670 C.2       1 TMP270      0.4610
     20 C20        17.8650   18.5340   42.5260 C.3       1 TMP270      0.0670
     21 N21        13.8940   11.3250   39.2710 N.am      1 TMP270     -0.6660
     22 O22        18.8980   19.4250   40.5720 O.co2     1 TMP270     -0.6950
     23 O23        13.6330   13.5330   39.4900 O.2       1 TMP270     -0.5090
     24 O24        16.7010   19.4140   40.6530 O.co2     1 TMP270     -0.6800
     25 O25        16.7050   17.6720   42.6700 O.3       1 TMP270     -0.3510
     26 H1          8.9720   12.2680   39.8830 H         1 TMP270      0.0720
     27 H2          9.1560   13.1400   38.3230 H         1 TMP270      0.0740
     28 H3          8.1930   11.6240   38.3980 H         1 TMP270      0.0660
     29 H4         11.3310    8.4350   35.5820 H         1 TMP270      0.0720
     30 H5         12.1090    7.5210   36.9170 H         1 TMP270      0.0670
     31 H6         10.3210    7.6830   36.8620 H         1 TMP270      0.0670
     32 H7         18.4700   19.4240   44.3990 H         1 TMP270      0.0550
     33 H8         18.0490   20.6040   43.1110 H         1 TMP270      0.0680
     34 H9         16.7490   19.7010   43.9610 H         1 TMP270      0.0650
     35 H10        19.5870   17.4560   41.7440 H         1 TMP270      0.0650
     36 H11        19.9230   18.4200   43.2210 H         1 TMP270      0.0620
     37 H12        19.0130   16.8770   43.3440 H         1 TMP270      0.0460
     38 H13        14.7890   13.4890   42.5260 H         1 TMP270      0.1190
     39 H14        17.2930   14.5400   39.2390 H         1 TMP270      0.1230
     40 H15        15.2120   15.6670   43.5710 H         1 TMP270      0.1260
     41 H16        17.7340   16.7540   40.2800 H         1 TMP270      0.1330
     42 H17         9.2550    9.8390   37.3980 H         1 TMP270      0.1210
     43 H18        11.6190   12.6910   39.5270 H         1 TMP270      0.1400
     44 H19        13.4720    9.2950   37.6820 H         1 TMP270      0.1240
     45 H20        16.5070   12.4160   39.4700 H         1 TMP270      0.1030
     46 H21        15.7270   11.8700   41.0370 H         1 TMP270      0.1010
     47 H22        14.4660   10.5510   39.5420 H         1 TMP270      0.4120
@<TRIPOS>BOND
     1    2   29 1
     2    2   31 1
     3    2   30 1
     4    2   14 1
     5    9   42 1
     6    9   14 ar
     7   11   14 ar
     8   11   44 1
     9    9   13 ar
    10   11   17 ar
    11    1   27 1
    12    1   28 1
    13    1   13 1
    14   10   13 ar
    15   10   17 ar
    16   17   21 1
    17    1   26 1
    18   10   43 1
    19    6   39 1
    20   18   21 am
    21   21   47 1
    22   12   45 1
    23   18   23 2
    24   12   18 1
    25    6    8 ar
    26    6   15 ar
    27   12   15 1
    28   12   46 1
    29    8   41 1
    30   19   22 2
    31   19   24 1
    32    8   16 ar
    33    5   15 ar
    34   19   20 1
    35    4   35 1
    36    7   16 ar
    37   16   25 1
    38    5   38 1
    39    5    7 ar
    40   20   25 1
    41    4   20 1
    42    3   20 1
    43    7   40 1
    44    4   36 1
    45    4   37 1
    46    3   33 1
    47    3   34 1
    48    3   32 1
@<TRIPOS>MOLECULE
header   -5.547
   47    48     0     0     0
SMALL
USER_CHARGES

@<TRIPOS>ATOM
      1 C1          8.4050   18.1450   35.6160 C.3       1 TMP273     -0.1180
      2 C2          7.1380   13.4480   36.8230 C.3       1 TMP273     -0.1160
      3 C3         16.7420   22.4210   43.7990 C.3       1 TMP273     -0.1230
      4 C4         16.2580   20.1650   44.7600 C.3       1 TMP273     -0.1490
      5 C5         11.8840   19.1060   42.1070 C.ar      1 TMP273     -0.0810
      6 C6         13.7230   17.5750   41.9900 C.ar      1 TMP273     -0.0800
      7 C7         12.7470   20.1390   42.4050 C.ar      1 TMP273     -0.1390
      8 C8         14.6110   18.6160   42.2920 C.ar      1 TMP273     -0.1470
      9 C9          7.7910   15.8080   36.2660 C.ar      1 TMP273     -0.1420
     10 C10         9.2470   17.0590   37.7020 C.ar      1 TMP273     -0.1370
     11 C11         8.6290   14.7960   38.2700 C.ar      1 TMP273     -0.1600
     12 C12        11.4490   16.7800   41.5720 C.3       1 TMP273     -0.0840
     13 C13         8.4820   16.9790   36.5510 C.ar      1 TMP273     -0.0600
     14 C14         7.8720   14.7180   37.1310 C.ar      1 TMP273     -0.0630
     15 C15        12.3640   17.8310   41.8980 C.ar      1 TMP273     -0.1210
     16 C16        14.1160   19.9070   42.5010 C.ar      1 TMP273      0.1510
     17 C17         9.3200   15.9590   38.5720 C.ar      1 TMP273      0.1600
     18 C18        10.9870   16.7940   40.1020 C.2       1 TMP273      0.5030
     19 C19        17.2940   20.4210   42.4940 C.2       1 TMP273      0.4610
     20 C20        16.2990   20.9980   43.4590 C.3       1 TMP273      0.0670
     21 N21         9.9010   16.0860   39.8180 N.am      1 TMP273     -0.6660
     22 O22        18.2360   19.7160   42.9290 O.co2     1 TMP273     -0.6950
     23 O23        11.4400   17.6270   39.3180 O.2       1 TMP273     -0.5090
     24 O24        17.1370   20.6420   41.2660 O.co2     1 TMP273     -0.6800
     25 O25        15.0040   21.0630   42.8060 O.3       1 TMP273     -0.3510
     26 H1          8.0420   19.0280   36.1610 H         1 TMP273      0.0720
     27 H2          9.4060   18.3530   35.2070 H         1 TMP273      0.0740
     28 H3          7.7140   17.9100   34.7940 H         1 TMP273      0.0660
     29 H4          7.7620   12.8100   36.1810 H         1 TMP273      0.0720
     30 H5          6.9130   12.9180   37.7600 H         1 TMP273      0.0670
     31 H6          6.1990   13.6850   36.3010 H         1 TMP273      0.0670
     32 H7         16.5920   22.6050   44.8740 H         1 TMP273      0.0550
     33 H8         17.8070   22.5420   43.5510 H         1 TMP273      0.0680
     34 H9         16.1450   23.1390   43.2170 H         1 TMP273      0.0650
     35 H10        16.5710   19.1320   44.5450 H         1 TMP273      0.0650
     36 H11        16.9420   20.6070   45.5000 H         1 TMP273      0.0620
     37 H12        15.2340   20.1610   45.1620 H         1 TMP273      0.0460
     38 H13        10.8230   19.2970   42.0350 H         1 TMP273      0.1190
     39 H14        14.0970   16.5750   41.8280 H         1 TMP273      0.1230
     40 H15        12.3580   21.1340   42.5660 H         1 TMP273      0.1260
     41 H16        15.6710   18.4230   42.3640 H         1 TMP273      0.1330
     42 H17         7.1900   15.7420   35.3720 H         1 TMP273      0.1210
     43 H18         9.7870   17.9660   37.9310 H         1 TMP273      0.1400
     44 H19         8.6880   13.9480   38.9360 H         1 TMP273      0.1240
     45 H20        11.9500   15.8200   41.7630 H         1 TMP273      0.1030
     46 H21        10.5540   16.9270   42.1940 H         1 TMP273      0.1010
     47 H22         9.4620   15.6020   40.5750 H         1 TMP273      0.4120
@<TRIPOS>BOND
     1    1   28 1
     2    1   27 1
     3    9   42 1
     4    1   26 1
     5    1   13 1
     6    2   29 1
     7    9   13 ar
     8    9   14 ar
     9    2   31 1
    10   10   13 ar
    11    2   14 1
    12    2   30 1
    13   11   14 ar
    14   10   43 1
    15   10   17 ar
    16   11   17 ar
    17   11   44 1
    18   17   21 1
    19   18   23 2
    20   18   21 am
    21   21   47 1
    22   12   18 1
    23   19   24 1
    24   12   45 1
    25   12   15 1
    26   12   46 1
    27    6   39 1
    28    6   15 ar
    29    5   15 ar
    30    6    8 ar
    31    5   38 1
    32    5    7 ar
    33    8   41 1
    34    8   16 ar
    35    7   16 ar
    36    7   40 1
    37   19   22 2
    38   19   20 1
    39   16   25 1
    40   20   25 1
    41    3   34 1
    42    3   20 1
    43    4   20 1
    44    3   33 1
    45    3   32 1
    46    4   35 1
    47    4   37 1
    48    4   36 1
@<TRIPOS>MOLECULE
header   -5.622
   47    48     0     0     0
SMALL
USER_CHARGES

@<TRIPOS>ATOM
      1 C1          8.1420   18.1130   36.0500 C.3       1 TMP275     -0.1180
      2 C2          7.1960   13.2770   36.9620 C.3       1 TMP275     -0.1160
      3 C3         16.7890   22.2170   43.9950 C.3       1 TMP275     -0.1230
      4 C4         16.4860   19.8710   44.8040 C.3       1 TMP275     -0.1490
      5 C5         11.9990   18.7750   42.3600 C.ar      1 TMP275     -0.0810
      6 C6         13.9010   17.3610   42.0060 C.ar      1 TMP275     -0.0800
      7 C7         12.8280   19.8290   42.6840 C.ar      1 TMP275     -0.1390
      8 C8         14.7540   18.4240   42.3330 C.ar      1 TMP275     -0.1470
      9 C9          7.6900   15.7040   36.5520 C.ar      1 TMP275     -0.1420
     10 C10         9.1760   16.9220   37.9860 C.ar      1 TMP275     -0.1370
     11 C11         8.7120   14.5920   38.4120 C.ar      1 TMP275     -0.1600
     12 C12        11.6470   16.4750   41.6730 C.3       1 TMP275     -0.0840
     13 C13         8.3390   16.8860   36.8830 C.ar      1 TMP275     -0.0600
     14 C14         7.8840   14.5580   37.3220 C.ar      1 TMP275     -0.0630
     15 C15        12.5280   17.5470   42.0220 C.ar      1 TMP275     -0.1210
     16 C16        14.2110   19.6670   42.6730 C.ar      1 TMP275      0.1510
     17 C17         9.3630   15.7650   38.7600 C.ar      1 TMP275      0.1600
     18 C18        11.0860   16.5740   40.2420 C.2       1 TMP275      0.5030
     19 C19        17.3510   20.3530   42.5040 C.2       1 TMP275      0.4610
     20 C20        16.3960   20.8010   43.5730 C.3       1 TMP275      0.0670
     21 N21        10.0190   15.8310   39.9730 N.am      1 TMP275     -0.6660
     22 O22        18.3540   19.6720   42.8220 O.co2     1 TMP275     -0.6950
     23 O23        11.4420   17.4870   39.4980 O.2       1 TMP275     -0.5090
     24 O24        17.1000   20.6570   41.3100 O.co2     1 TMP275     -0.6800
     25 O25        15.0580   20.8430   43.0110 O.3       1 TMP275     -0.3510
     26 H1          7.7720   18.9320   36.6840 H         1 TMP275      0.0720
     27 H2          9.1000   18.4070   35.5950 H         1 TMP275      0.0740
     28 H3          7.4080   17.9030   35.2570 H         1 TMP275      0.0660
     29 H4          7.8060   12.7230   36.2340 H         1 TMP275      0.0720
     30 H5          7.0620   12.6660   37.8670 H         1 TMP275      0.0670
     31 H6          6.2130   13.5000   36.5220 H         1 TMP275      0.0670
     32 H7         16.7040   22.3110   45.0880 H         1 TMP275      0.0550
     33 H8         17.8270   22.4150   43.6900 H         1 TMP275      0.0680
     34 H9         16.1190   22.9430   43.5110 H         1 TMP275      0.0650
     35 H10        16.8340   18.8760   44.4890 H         1 TMP275      0.0650
     36 H11        17.1940   20.2930   45.5320 H         1 TMP275      0.0620
     37 H12        15.4930   19.7810   45.2690 H         1 TMP275      0.0460
     38 H13        10.9280   18.9120   42.3720 H         1 TMP275      0.1190
     39 H14        14.3130   16.3980   41.7430 H         1 TMP275      0.1230
     40 H15        12.4020   20.7860   42.9470 H         1 TMP275      0.1260
     41 H16        15.8250   18.2840   42.3220 H         1 TMP275      0.1330
     42 H17         7.0340   15.6720   35.6950 H         1 TMP275      0.1210
     43 H18         9.6840   17.8380   38.2510 H         1 TMP275      0.1400
     44 H19         8.8580   13.7010   39.0040 H         1 TMP275      0.1240
     45 H20        12.2070   15.5330   41.7560 H         1 TMP275      0.1030
     46 H21        10.7890   16.5250   42.3610 H         1 TMP275      0.1010
     47 H22         9.6580   15.2680   40.7160 H         1 TMP275      0.4120
@<TRIPOS>BOND
     1    1   28 1
     2    1   27 1
     3    9   42 1
     4    1   26 1
     5    1   13 1
     6    2   29 1
     7    2   31 1
     8    9   13 ar
     9    9   14 ar
    10   10   13 ar
    11    2   14 1
    12    2   30 1
    13   11   14 ar
    14   10   43 1
    15   10   17 ar
    16   11   17 ar
    17   11   44 1
    18   17   21 1
    19   18   23 2
    20   18   21 am
    21   21   47 1
    22   12   18 1
    23   19   24 1
    24   12   45 1
    25   12   15 1
    26   12   46 1
    27    6   39 1
    28    6   15 ar
    29    6    8 ar
    30    5   15 ar
    31    8   41 1
    32    8   16 ar
    33    5   38 1
    34    5    7 ar
    35   19   22 2
    36   19   20 1
    37    7   16 ar
    38   16   25 1
    39    7   40 1
    40   20   25 1
    41    3   34 1
    42    3   20 1
    43    4   20 1
    44    3   33 1
    45    3   32 1
    46    4   35 1
    47    4   37 1
    48    4   36 1
@<TRIPOS>MOLECULE
header   -9.627
   47    48     0     0     0
SMALL
USER_CHARGES

@<TRIPOS>ATOM
      1 C1          8.6820   17.4340   35.0500 C.3       1 TMP279     -0.1180
      2 C2          5.6790   13.7470   36.6360 C.3       1 TMP279     -0.1160
      3 C3         17.3870   19.6780   43.6480 C.3       1 TMP279     -0.1230
      4 C4         16.0330   17.9210   44.8010 C.3       1 TMP279     -0.1490
      5 C5         11.7840   18.0920   41.7650 C.ar      1 TMP279     -0.0810
      6 C6         12.9280   16.0070   42.0610 C.ar      1 TMP279     -0.0800
      7 C7         12.9440   18.7830   42.0450 C.ar      1 TMP279     -0.1390
      8 C8         14.1140   16.6970   42.3470 C.ar      1 TMP279     -0.1470
      9 C9          7.1990   15.6010   35.8900 C.ar      1 TMP279     -0.1420
     10 C10         8.9060   16.4590   37.3390 C.ar      1 TMP279     -0.1370
     11 C11         7.4530   14.6830   38.0890 C.ar      1 TMP279     -0.1600
     12 C12        10.5580   16.0210   41.4590 C.3       1 TMP279     -0.0840
     13 C13         8.2510   16.4780   36.1180 C.ar      1 TMP279     -0.0600
     14 C14         6.8060   14.7040   36.8820 C.ar      1 TMP279     -0.0630
     15 C15        11.7710   16.7130   41.7710 C.ar      1 TMP279     -0.1210
     16 C16        14.1190   18.0950   42.3380 C.ar      1 TMP279      0.1510
     17 C17         8.5020   15.5550   38.3350 C.ar      1 TMP279      0.1600
     18 C18        10.2430   15.9690   39.9520 C.2       1 TMP279      0.5030
     19 C19        17.2520   17.4340   42.6680 C.2       1 TMP279      0.4610
     20 C20        16.4740   18.4720   43.4260 C.3       1 TMP279      0.0670
     21 N21         8.9960   15.6600   39.6200 N.am      1 TMP279     -0.6660
     22 O22        17.8320   16.5180   43.2980 O.co2     1 TMP279     -0.6950
     23 O23        11.0280   16.4520   39.1380 O.2       1 TMP279     -0.5090
     24 O24        17.2780   17.5030   41.4130 O.co2     1 TMP279     -0.6800
     25 O25        15.3470   18.8910   42.6130 O.3       1 TMP279     -0.3510
     26 H1          8.6320   18.4620   35.4370 H         1 TMP279      0.0720
     27 H2          9.7150   17.2050   34.7480 H         1 TMP279      0.0740
     28 H3          8.0140   17.3360   34.1810 H         1 TMP279      0.0660
     29 H4          6.0670   12.8360   36.1580 H         1 TMP279      0.0720
     30 H5          5.2060   13.4850   37.5940 H         1 TMP279      0.0670
     31 H6          4.9360   14.2190   35.9770 H         1 TMP279      0.0670
     32 H7         17.2380   20.0680   44.6660 H         1 TMP279      0.0550
     33 H8         18.4360   19.3710   43.5220 H         1 TMP279      0.0680
     34 H9         17.1430   20.4610   42.9150 H         1 TMP279      0.0650
     35 H10        15.9550   16.8250   44.7500 H         1 TMP279      0.0650
     36 H11        16.7750   18.2000   45.5630 H         1 TMP279      0.0620
     37 H12        15.0540   18.3460   45.0690 H         1 TMP279      0.0460
     38 H13        10.8780   18.6350   41.5400 H         1 TMP279      0.1190
     39 H14        12.9150   14.9270   42.0680 H         1 TMP279      0.1230
     40 H15        12.9410   19.8630   42.0370 H         1 TMP279      0.1260
     41 H16        15.0180   16.1520   42.5740 H         1 TMP279      0.1330
     42 H17         6.6830   15.6150   34.9420 H         1 TMP279      0.1210
     43 H18         9.7250   17.1380   37.5250 H         1 TMP279      0.1400
     44 H19         7.1440   13.9850   38.8520 H         1 TMP279      0.1240
     45 H20        10.6530   14.9870   41.8240 H         1 TMP279      0.1030
     46 H21         9.7380   16.5720   41.9430 H         1 TMP279      0.1010
     47 H22         8.3550   15.4880   40.3680 H         1 TMP279      0.4120
@<TRIPOS>BOND
     1    1   28 1
     2    1   27 1
     3    9   42 1
     4    1   26 1
     5    1   13 1
     6    9   13 ar
     7    9   14 ar
     8    2   31 1
     9   10   13 ar
    10    2   29 1
    11    2   14 1
    12    2   30 1
    13   11   14 ar
    14   10   43 1
    15   10   17 ar
    16   11   17 ar
    17   11   44 1
    18   17   21 1
    19   18   23 2
    20   18   21 am
    21   21   47 1
    22   12   18 1
    23   19   24 1
    24   12   15 1
    25   12   45 1
    26   12   46 1
    27    5   38 1
    28    5   15 ar
    29    5    7 ar
    30    6   15 ar
    31    7   40 1
    32    7   16 ar
    33    6   39 1
    34    6    8 ar
    35    8   16 ar
    36   16   25 1
    37    8   41 1
    38   20   25 1
    39   19   22 2
    40   19   20 1
    41    3   34 1
    42    3   20 1
    43    4   20 1
    44    3   33 1
    45    3   32 1
    46    4   35 1
    47    4   37 1
    48    4   36 1
@<TRIPOS>MOLECULE
header   -8.471
   47    48     0     0     0
SMALL
USER_CHARGES

@<TRIPOS>ATOM
      1 C1          9.7010   11.3720   38.7470 C.3       1 TMP287     -0.1180
      2 C2         12.7110    7.6460   37.2710 C.3       1 TMP287     -0.1160
      3 C3         16.4910   20.3070   44.1140 C.3       1 TMP287     -0.1230
      4 C4         18.2570   18.6040   43.6320 C.3       1 TMP287     -0.1490
      5 C5         15.1540   14.5050   42.6960 C.ar      1 TMP287     -0.0810
      6 C6         16.7390   15.1790   41.0290 C.ar      1 TMP287     -0.0800
      7 C7         15.1340   15.7840   43.2110 C.ar      1 TMP287     -0.1390
      8 C8         16.7270   16.4820   41.5430 C.ar      1 TMP287     -0.1470
      9 C9         11.2400    9.5290   38.0420 C.ar      1 TMP287     -0.1420
     10 C10        12.1410   11.3710   39.2850 C.ar      1 TMP287     -0.1370
     11 C11        13.5780    9.5700   38.5670 C.ar      1 TMP287     -0.1600
     12 C12        15.9370   12.8700   41.0850 C.3       1 TMP287     -0.0840
     13 C13        11.0580   10.7420   38.6920 C.ar      1 TMP287     -0.0600
     14 C14        12.5070    8.9490   37.9820 C.ar      1 TMP287     -0.0630
     15 C15        15.9490   14.2000   41.6110 C.ar      1 TMP287     -0.1210
     16 C16        15.9180   16.7850   42.6430 C.ar      1 TMP287      0.1510
     17 C17        13.4130   10.7790   39.2240 C.ar      1 TMP287      0.1600
     18 C18        14.7080   12.5590   40.2100 C.2       1 TMP287      0.5030
     19 C19        16.9700   19.7040   41.7860 C.2       1 TMP287      0.4610
     20 C20        16.8860   19.1600   43.1830 C.3       1 TMP287      0.0670
     21 N21        14.4550   11.2760   39.9810 N.am      1 TMP287     -0.6660
     22 O22        18.0800   20.0720   41.3350 O.co2     1 TMP287     -0.6950
     23 O23        13.8730   13.4330   39.9810 O.2       1 TMP287     -0.5090
     24 O24        15.9190   19.7510   41.0970 O.co2     1 TMP287     -0.6800
     25 O25        15.8420   18.1520   43.2270 O.3       1 TMP287     -0.3510
     26 H1          9.4170   11.5400   39.7960 H         1 TMP287      0.0720
     27 H2          9.7220   12.3350   38.2140 H         1 TMP287      0.0740
     28 H3          8.9690   10.7040   38.2700 H         1 TMP287      0.0660
     29 H4         12.8980    7.8340   36.2040 H         1 TMP287      0.0720
     30 H5         13.5750    7.1220   37.7070 H         1 TMP287      0.0670
     31 H6         11.8110    7.0230   37.3820 H         1 TMP287      0.0670
     32 H7         17.0710   20.2390   45.0470 H         1 TMP287      0.0550
     33 H8         16.7020   21.2670   43.6200 H         1 TMP287      0.0680
     34 H9         15.4170   20.2390   44.3430 H         1 TMP287      0.0650
     35 H10        18.8350   18.2950   42.7480 H         1 TMP287      0.0650
     36 H11        18.8090   19.3840   44.1760 H         1 TMP287      0.0620
     37 H12        18.1030   17.7360   44.2910 H         1 TMP287      0.0460
     38 H13        14.5420   13.7360   43.1460 H         1 TMP287      0.1190
     39 H14        17.3620   14.9370   40.1810 H         1 TMP287      0.1230
     40 H15        14.5070   16.0110   44.0610 H         1 TMP287      0.1260
     41 H16        17.3400   17.2490   41.0930 H         1 TMP287      0.1330
     42 H17        10.3990    9.0330   37.5820 H         1 TMP287      0.1210
     43 H18        12.0070   12.3150   39.7930 H         1 TMP287      0.1400
     44 H19        14.5560    9.1160   38.5160 H         1 TMP287      0.1240
     45 H20        16.8380   12.7400   40.4670 H         1 TMP287      0.1030
     46 H21        15.9050   12.1830   41.9430 H         1 TMP287      0.1010
     47 H22        15.0750   10.6090   40.3930 H         1 TMP287      0.4120
@<TRIPOS>BOND
     1    2   29 1
     2    2   31 1
     3    2   30 1
     4    2   14 1
     5    9   42 1
     6    9   14 ar
     7   11   14 ar
     8    9   13 ar
     9    1   27 1
    10    1   28 1
    11   11   44 1
    12   11   17 ar
    13    1   13 1
    14   10   13 ar
    15    1   26 1
    16   10   17 ar
    17   17   21 1
    18   10   43 1
    19   18   21 am
    20   21   47 1
    21   18   23 2
    22    6   39 1
    23   12   18 1
    24   12   45 1
    25    6    8 ar
    26    6   15 ar
    27   12   15 1
    28   12   46 1
    29    8   41 1
    30   19   24 1
    31   19   22 2
    32    8   16 ar
    33    5   15 ar
    34   19   20 1
    35    7   16 ar
    36   16   25 1
    37    5   38 1
    38    5    7 ar
    39    4   35 1
    40   20   25 1
    41    4   20 1
    42    3   20 1
    43    7   40 1
    44    3   33 1
    45    4   36 1
    46    4   37 1
    47    3   34 1
    48    3   32 1
@<TRIPOS>MOLECULE
header  -12.152
   47    48     0     0     0
SMALL
USER_CHARGES

@<TRIPOS>ATOM
      1 C1          9.1600   12.5110   37.4130 C.3       1 TMP288     -0.1180
      2 C2         11.2060    7.9860   38.0880 C.3       1 TMP288     -0.1160
      3 C3         15.7420   21.0100   43.6720 C.3       1 TMP288     -0.1230
      4 C4         16.9420   18.9160   44.3250 C.3       1 TMP288     -0.1490
      5 C5         13.3450   15.4470   42.7990 C.ar      1 TMP288     -0.0810
      6 C6         15.5730   15.2820   41.9320 C.ar      1 TMP288     -0.0800
      7 C7         13.5220   16.7950   43.0290 C.ar      1 TMP288     -0.1390
      8 C8         15.7650   16.6510   42.1600 C.ar      1 TMP288     -0.1470
      9 C9         10.2060   10.2700   37.7910 C.ar      1 TMP288     -0.1420
     10 C10        11.0760   12.1630   38.9780 C.ar      1 TMP288     -0.1370
     11 C11        12.0510    9.9780   39.2920 C.ar      1 TMP288     -0.1600
     12 C12        14.1460   13.2980   42.0080 C.3       1 TMP288     -0.0840
     13 C13        10.1690   11.6280   38.0770 C.ar      1 TMP288     -0.0600
     14 C14        11.1530    9.4500   38.4020 C.ar      1 TMP288     -0.0630
     15 C15        14.3610   14.6910   42.2530 C.ar      1 TMP288     -0.1210
     16 C16        14.7300   17.4120   42.7120 C.ar      1 TMP288      0.1510
     17 C17        12.0240   11.3300   39.5930 C.ar      1 TMP288      0.1600
     18 C18        13.3180   13.0110   40.7410 C.2       1 TMP288      0.5030
     19 C19        16.8710   19.6890   41.9430 C.2       1 TMP288      0.4610
     20 C20        16.0920   19.5920   43.2240 C.3       1 TMP288      0.0670
     21 N21        12.7930   11.7970   40.6410 N.am      1 TMP288     -0.6660
     22 O22        18.1240   19.6780   41.9820 O.co2     1 TMP288     -0.6950
     23 O23        12.9480   13.9370   40.0200 O.2       1 TMP288     -0.5090
     24 O24        16.2360   19.7530   40.8590 O.co2     1 TMP288     -0.6800
     25 O25        14.8580   18.8730   42.9630 O.3       1 TMP288     -0.3510
     26 H1          8.5600   13.0240   38.1780 H         1 TMP288      0.0720
     27 H2          9.6790   13.2590   36.7930 H         1 TMP288      0.0740
     28 H3          8.5010   11.9010   36.7780 H         1 TMP288      0.0660
     29 H4         11.8370    7.8220   37.2020 H         1 TMP288      0.0720
     30 H5         11.6290    7.4420   38.9450 H         1 TMP288      0.0670
     31 H6         10.1890    7.6180   37.8850 H         1 TMP288      0.0670
     32 H7         15.8670   21.0910   44.7630 H         1 TMP288      0.0550
     33 H8         16.4100   21.7270   43.1730 H         1 TMP288      0.0680
     34 H9         14.6990   21.2320   43.4050 H         1 TMP288      0.0650
     35 H10        17.6910   18.2590   43.8590 H         1 TMP288      0.0650
     36 H11        17.4530   19.6880   44.9190 H         1 TMP288      0.0620
     37 H12        16.2880   18.3210   44.9790 H         1 TMP288      0.0460
     38 H13        12.4040   14.9790   43.0480 H         1 TMP288      0.1190
     39 H14        16.3680   14.6880   41.5060 H         1 TMP288      0.1230
     40 H15        12.7180   17.3770   43.4570 H         1 TMP288      0.1260
     41 H16        16.7070   17.1170   41.9110 H         1 TMP288      0.1330
     42 H17         9.4990    9.8470   37.0930 H         1 TMP288      0.1210
     43 H18        11.0530   13.2190   39.2060 H         1 TMP288      0.1400
     44 H19        12.7820    9.3370   39.7610 H         1 TMP288      0.1240
     45 H20        15.1280   12.8170   41.8900 H         1 TMP288      0.1030
     46 H21        13.5770   12.9040   42.8630 H         1 TMP288      0.1010
     47 H22        12.9690   11.1610   41.3920 H         1 TMP288      0.4120
@<TRIPOS>BOND
     1    1   28 1
     2    1   27 1
     3    9   42 1
     4    2   29 1
     5    1   13 1
     6    1   26 1
     7    9   13 ar
     8    9   14 ar
     9    2   31 1
    10   10   13 ar
    11    2   14 1
    12    2   30 1
    13   11   14 ar
    14   10   43 1
    15   10   17 ar
    16   11   17 ar
    17   11   44 1
    18   17   21 1
    19   18   23 2
    20   18   21 am
    21   21   47 1
    22   12   18 1
    23   19   24 1
    24    6   39 1
    25   12   45 1
    26    8   41 1
    27    6    8 ar
    28    6   15 ar
    29   19   22 2
    30   19   20 1
    31   12   15 1
    32   12   46 1
    33    8   16 ar
    34    5   15 ar
    35   16   25 1
    36    7   16 ar
    37    5    7 ar
    38    5   38 1
    39   20   25 1
    40    7   40 1
    41    3   33 1
    42    3   20 1
    43    4   20 1
    44    3   34 1
    45    3   32 1
    46    4   35 1
    47    4   36 1
    48    4   37 1
@<TRIPOS>MOLECULE
header  -18.483
   47    48     0     0     0
SMALL
USER_CHARGES

@<TRIPOS>ATOM
      1 C1          9.5410   11.4730   39.0600 C.3       1 TMP289     -0.1180
      2 C2         12.1070    8.2430   36.2120 C.3       1 TMP289     -0.1160
      3 C3         17.4250   19.5220   44.3320 C.3       1 TMP289     -0.1230
      4 C4         19.0220   18.0280   43.1220 C.3       1 TMP289     -0.1490
      5 C5         15.7830   14.0440   42.1530 C.ar      1 TMP289     -0.0810
      6 C6         16.9220   15.0970   40.3270 C.ar      1 TMP289     -0.0800
      7 C7         15.8880   15.1980   42.9010 C.ar      1 TMP289     -0.1390
      8 C8         17.0350   16.2770   41.0760 C.ar      1 TMP289     -0.1470
      9 C9         10.8650    9.8730   37.6630 C.ar      1 TMP289     -0.1420
     10 C10        12.0380   11.4830   38.9980 C.ar      1 TMP289     -0.1370
     11 C11        13.2600    9.9220   37.6210 C.ar      1 TMP289     -0.1600
     12 C12        16.1560   12.7850   40.1130 C.3       1 TMP289     -0.0840
     13 C13        10.8440   10.9300   38.5640 C.ar      1 TMP289     -0.0600
     14 C14        12.0790    9.3760   37.1940 C.ar      1 TMP289     -0.0630
     15 C15        16.2940   13.9900   40.8730 C.ar      1 TMP289     -0.1210
     16 C16        16.5130   16.3250   42.3720 C.ar      1 TMP289      0.1510
     17 C17        13.2580   10.9740   38.5240 C.ar      1 TMP289      0.1600
     18 C18        14.7520   12.5910   39.5080 C.2       1 TMP289      0.5030
     19 C19        17.3300   19.4000   41.8850 C.2       1 TMP289      0.4610
     20 C20        17.5840   18.5950   43.1270 C.3       1 TMP289      0.0670
     21 N21        14.4520   11.3650   39.0970 N.am      1 TMP289     -0.6660
     22 O22        18.3000   19.8990   41.2670 O.co2     1 TMP289     -0.6950
     23 O23        13.8880   13.4530   39.6590 O.2       1 TMP289     -0.5090
     24 O24        16.1440   19.5280   41.4860 O.co2     1 TMP289     -0.6800
     25 O25        16.5800   17.5490   43.2160 O.3       1 TMP289     -0.3510
     26 H1          9.5160   11.4240   40.1580 H         1 TMP289      0.0720
     27 H2          9.4330   12.5200   38.7380 H         1 TMP289      0.0740
     28 H3          8.7150   10.8750   38.6470 H         1 TMP289      0.0660
     29 H4         12.0320    8.6420   35.1900 H         1 TMP289      0.0720
     30 H5         13.0500    7.6870   36.3210 H         1 TMP289      0.0670
     31 H6         11.2590    7.5700   36.4060 H         1 TMP289      0.0670
     32 H7         18.2110   19.3040   45.0700 H         1 TMP289      0.0550
     33 H8         17.5110   20.5680   44.0020 H         1 TMP289      0.0680
     34 H9         16.4370   19.3620   44.7900 H         1 TMP289      0.0650
     35 H10        19.3710   17.9220   42.0840 H         1 TMP289      0.0650
     36 H11        19.6890   18.7150   43.6630 H         1 TMP289      0.0620
     37 H12        19.0300   17.0440   43.6140 H         1 TMP289      0.0460
     38 H13        15.2970   13.1750   42.5730 H         1 TMP289      0.1190
     39 H14        17.3240   15.0520   39.3250 H         1 TMP289      0.1230
     40 H15        15.4840   15.2280   43.9020 H         1 TMP289      0.1260
     41 H16        17.5220   17.1430   40.6550 H         1 TMP289      0.1330
     42 H17         9.9370    9.4360   37.3260 H         1 TMP289      0.1210
     43 H18        12.0310   12.3050   39.6990 H         1 TMP289      0.1400
     44 H19        14.1970    9.5330   37.2530 H         1 TMP289      0.1240
     45 H20        16.8820   12.8190   39.2870 H         1 TMP289      0.1030
     46 H21        16.3310   11.9460   40.8020 H         1 TMP289      0.1010
     47 H22        15.1520   10.6620   39.2110 H         1 TMP289      0.4120
@<TRIPOS>BOND
     1    2   29 1
     2    2   30 1
     3    2   31 1
     4    2   14 1
     5   11   14 ar
     6    9   14 ar
     7   11   44 1
     8    9   42 1
     9   11   17 ar
    10    9   13 ar
    11   10   17 ar
    12   17   21 1
    13   10   13 ar
    14    1   13 1
    15    1   28 1
    16    1   27 1
    17   10   43 1
    18    1   26 1
    19   21   47 1
    20   18   21 am
    21   12   45 1
    22    6   39 1
    23   18   23 2
    24   12   18 1
    25   12   46 1
    26   12   15 1
    27    6   15 ar
    28    6    8 ar
    29    8   41 1
    30    5   15 ar
    31    8   16 ar
    32   19   22 2
    33   19   24 1
    34   19   20 1
    35    4   35 1
    36    5   38 1
    37    5    7 ar
    38    7   16 ar
    39   16   25 1
    40    7   40 1
    41    4   20 1
    42    4   37 1
    43    4   36 1
    44   20   25 1
    45    3   20 1
    46    3   33 1
    47    3   34 1
    48    3   32 1
@<TRIPOS>MOLECULE
header  -13.240
   47    48     0     0     0
SMALL
USER_CHARGES

@<TRIPOS>ATOM
      1 C1         10.2710   10.1490   40.2030 C.3       1 TMP290     -0.1180
      2 C2         12.6050    7.3530   36.7590 C.3       1 TMP290     -0.1160
      3 C3         17.8960   19.1850   44.0680 C.3       1 TMP290     -0.1230
      4 C4         19.3950   17.9490   42.4960 C.3       1 TMP290     -0.1490
      5 C5         16.6070   13.5530   42.0510 C.ar      1 TMP290     -0.0810
      6 C6         17.1820   14.7800   40.0740 C.ar      1 TMP290     -0.0800
      7 C7         16.7050   14.7020   42.8070 C.ar      1 TMP290     -0.1390
      8 C8         17.2850   15.9540   40.8320 C.ar      1 TMP290     -0.1470
      9 C9         11.4810    8.7710   38.5000 C.ar      1 TMP290     -0.1420
     10 C10        12.6740   10.5180   39.6300 C.ar      1 TMP290     -0.1370
     11 C11        13.7850    9.1640   37.9690 C.ar      1 TMP290     -0.1600
     12 C12        16.7150   12.3840   39.9280 C.3       1 TMP290     -0.0840
     13 C13        11.5040    9.8040   39.4280 C.ar      1 TMP290     -0.0600
     14 C14        12.6280    8.4580   37.7710 C.ar      1 TMP290     -0.0630
     15 C15        16.8410   13.5870   40.6920 C.ar      1 TMP290     -0.1210
     16 C16        17.0440   15.9120   42.2080 C.ar      1 TMP290      0.1510
     17 C17        13.8270   10.1940   38.8950 C.ar      1 TMP290      0.1600
     18 C18        15.2560   11.9970   39.6170 C.2       1 TMP290      0.5030
     19 C19        17.3100   19.0780   41.6900 C.2       1 TMP290      0.4610
     20 C20        17.9260   18.3040   42.8200 C.3       1 TMP290      0.0670
     21 N21        15.0480   10.7460   39.2260 N.am      1 TMP290     -0.6660
     22 O22        18.0510   19.7180   40.9070 O.co2     1 TMP290     -0.6950
     23 O23        14.3320   12.7250   39.9770 O.2       1 TMP290     -0.5090
     24 O24        16.0610   19.0400   41.5490 O.co2     1 TMP290     -0.6800
     25 O25        17.1170   17.1240   43.0700 O.3       1 TMP290     -0.3510
     26 H1         10.4840   10.0840   41.2800 H         1 TMP290      0.0720
     27 H2          9.9550   11.1730   39.9520 H         1 TMP290      0.0740
     28 H3          9.4670    9.4430   39.9440 H         1 TMP290      0.0660
     29 H4         12.2640    7.7480   35.7910 H         1 TMP290      0.0720
     30 H5         13.6170    6.9370   36.6490 H         1 TMP290      0.0670
     31 H6         11.9180    6.5630   37.0960 H         1 TMP290      0.0670
     32 H7         18.8410   19.0740   44.6190 H         1 TMP290      0.0550
     33 H8         17.7660   20.2370   43.7710 H         1 TMP290      0.0680
     34 H9         17.0570   18.8800   44.7120 H         1 TMP290      0.0650
     35 H10        19.5310   17.9060   41.4050 H         1 TMP290      0.0650
     36 H11        20.0590   18.7180   42.9170 H         1 TMP290      0.0620
     37 H12        19.6420   16.9710   42.9350 H         1 TMP290      0.0460
     38 H13        16.3440   12.6190   42.5260 H         1 TMP290      0.1190
     39 H14        17.3680   14.8040   39.0100 H         1 TMP290      0.1230
     40 H15        16.5190   14.6620   43.8710 H         1 TMP290      0.1260
     41 H16        17.5500   16.8870   40.3550 H         1 TMP290      0.1330
     42 H17        10.5730    8.2090   38.3420 H         1 TMP290      0.1210
     43 H18        12.7000   11.3220   40.3510 H         1 TMP290      0.1400
     44 H19        14.6690    8.9170   37.4000 H         1 TMP290      0.1240
     45 H20        17.2400   12.5310   38.9730 H         1 TMP290      0.1030
     46 H21        17.1440   11.5710   40.5320 H         1 TMP290      0.1010
     47 H22        15.8470   10.1490   39.1660 H         1 TMP290      0.4120
@<TRIPOS>BOND
     1    2   29 1
     2    2   30 1
     3    2   31 1
     4    2   14 1
     5   11   44 1
     6   11   14 ar
     7    9   14 ar
     8   11   17 ar
     9    9   42 1
    10    9   13 ar
    11   17   21 1
    12   10   17 ar
    13   12   45 1
    14    6   39 1
    15   21   47 1
    16   18   21 am
    17   10   13 ar
    18    1   13 1
    19   12   18 1
    20   18   23 2
    21   10   43 1
    22   12   46 1
    23   12   15 1
    24    1   28 1
    25    1   27 1
    26    6   15 ar
    27    6    8 ar
    28    1   26 1
    29    8   41 1
    30    5   15 ar
    31    8   16 ar
    32   19   22 2
    33    4   35 1
    34   19   24 1
    35   19   20 1
    36    5   38 1
    37    5    7 ar
    38    7   16 ar
    39   16   25 1
    40    4   20 1
    41    4   36 1
    42    4   37 1
    43    7   40 1
    44   20   25 1
    45    3   20 1
    46    3   33 1
    47    3   32 1
    48    3   34 1
@<TRIPOS>MOLECULE
header   -5.780
   47    48     0     0     0
SMALL
USER_CHARGES

@<TRIPOS>ATOM
      1 C1          9.5850   11.5610   38.3770 C.3       1 TMP291     -0.1180
      2 C2         11.9130    7.4810   36.6280 C.3       1 TMP291     -0.1160
      3 C3         18.0030   19.4970   42.9490 C.3       1 TMP291     -0.1230
      4 C4         19.4710   17.5800   42.3010 C.3       1 TMP291     -0.1490
      5 C5         15.7790   13.9290   41.7200 C.ar      1 TMP291     -0.0810
      6 C6         17.2580   14.3990   39.8940 C.ar      1 TMP291     -0.0800
      7 C7         15.9800   15.1970   42.2250 C.ar      1 TMP291     -0.1390
      8 C8         17.4700   15.6900   40.3970 C.ar      1 TMP291     -0.1470
      9 C9         10.7890    9.5370   37.5320 C.ar      1 TMP291     -0.1420
     10 C10        12.0460   11.2380   38.6610 C.ar      1 TMP291     -0.1370
     11 C11        13.1530    9.2680   37.8130 C.ar      1 TMP291     -0.1600
     12 C12        16.1710   12.2150   40.0490 C.3       1 TMP291     -0.0840
     13 C13        10.8350   10.7600   38.1880 C.ar      1 TMP291     -0.0600
     14 C14        11.9550    8.7960   37.3460 C.ar      1 TMP291     -0.0630
     15 C15        16.4110   13.5290   40.5610 C.ar      1 TMP291     -0.1210
     16 C16        16.8250   16.0900   41.5710 C.ar      1 TMP291      0.1510
     17 C17        13.2160   10.4840   38.4750 C.ar      1 TMP291      0.1600
     18 C18        14.8280   12.0730   39.3080 C.2       1 TMP291      0.5030
     19 C19        18.1560   18.8510   40.5890 C.2       1 TMP291      0.4610
     20 C20        18.1460   18.3140   41.9910 C.3       1 TMP291      0.0670
     21 N21        14.3870   10.8360   39.1160 N.am      1 TMP291     -0.6660
     22 O22        19.2530   19.0730   40.0230 O.co2     1 TMP291     -0.6950
     23 O23        14.0960   13.0510   39.1600 O.2       1 TMP291     -0.5090
     24 O24        17.0550   19.0390   40.0110 O.co2     1 TMP291     -0.6800
     25 O25        16.9900   17.4510   42.1500 O.3       1 TMP291     -0.3510
     26 H1          9.4350   11.7590   39.4480 H         1 TMP291      0.0720
     27 H2          9.6770   12.5160   37.8380 H         1 TMP291      0.0740
     28 H3          8.7260   10.9970   37.9840 H         1 TMP291      0.0660
     29 H4         12.0120    7.6500   35.5460 H         1 TMP291      0.0720
     30 H5         12.7410    6.8470   36.9770 H         1 TMP291      0.0670
     31 H6         10.9560    6.9820   36.8350 H         1 TMP291      0.0670
     32 H7         18.6620   19.3480   43.8170 H         1 TMP291      0.0550
     33 H8         18.2860   20.4250   42.4290 H         1 TMP291      0.0680
     34 H9         16.9590   19.5690   43.2880 H         1 TMP291      0.0650
     35 H10        19.9100   17.2040   41.3640 H         1 TMP291      0.0650
     36 H11        20.1740   18.2780   42.7790 H         1 TMP291      0.0620
     37 H12        19.2740   16.7370   42.9780 H         1 TMP291      0.0460
     38 H13        15.1220   13.2450   42.2360 H         1 TMP291      0.1190
     39 H14        17.7530   14.0830   38.9880 H         1 TMP291      0.1230
     40 H15        15.4790   15.4990   43.1340 H         1 TMP291      0.1260
     41 H16        18.1290   16.3730   39.8800 H         1 TMP291      0.1330
     42 H17         9.8470    9.1580   37.1640 H         1 TMP291      0.1210
     43 H18        12.0900   12.1880   39.1740 H         1 TMP291      0.1400
     44 H19        14.0530    8.6900   37.6650 H         1 TMP291      0.1240
     45 H20        16.9780   11.9720   39.3430 H         1 TMP291      0.1030
     46 H21        16.1380   11.5330   40.9120 H         1 TMP291      0.1010
     47 H22        14.9540   10.0910   39.4670 H         1 TMP291      0.4120
@<TRIPOS>BOND
     1    2   29 1
     2    2   31 1
     3    2   30 1
     4    2   14 1
     5    9   42 1
     6    9   14 ar
     7   11   14 ar
     8    9   13 ar
     9   11   44 1
    10   11   17 ar
    11    1   27 1
    12    1   28 1
    13    1   13 1
    14   10   13 ar
    15    1   26 1
    16   10   17 ar
    17   17   21 1
    18   10   43 1
    19    6   39 1
    20   18   21 am
    21   21   47 1
    22   18   23 2
    23   12   18 1
    24   12   45 1
    25    8   41 1
    26    6    8 ar
    27    6   15 ar
    28   19   24 1
    29   19   22 2
    30   12   15 1
    31   12   46 1
    32    8   16 ar
    33    5   15 ar
    34   19   20 1
    35    4   35 1
    36   16   25 1
    37    7   16 ar
    38    5    7 ar
    39    5   38 1
    40   20   25 1
    41    4   20 1
    42    3   20 1
    43    7   40 1
    44    4   36 1
    45    4   37 1
    46    3   33 1
    47    3   34 1
    48    3   32 1
@<TRIPOS>MOLECULE
header   -9.596
   47    48     0     0     0
SMALL
USER_CHARGES

@<TRIPOS>ATOM
      1 C1         10.0840   10.4910   39.7120 C.3       1 TMP292     -0.1180
      2 C2         12.5630    7.5220   36.5230 C.3       1 TMP292     -0.1160
      3 C3         17.7560   19.2990   43.9900 C.3       1 TMP292     -0.1230
      4 C4         19.3220   17.9660   42.5680 C.3       1 TMP292     -0.1490
      5 C5         16.3930   13.6770   41.9900 C.ar      1 TMP292     -0.0810
      6 C6         17.1740   14.8330   40.0410 C.ar      1 TMP292     -0.0800
      7 C7         16.4800   14.8390   42.7290 C.ar      1 TMP292     -0.1390
      8 C8         17.2670   16.0200   40.7810 C.ar      1 TMP292     -0.1470
      9 C9         11.3660    9.0260   38.1390 C.ar      1 TMP292     -0.1420
     10 C10        12.5390   10.7490   39.3250 C.ar      1 TMP292     -0.1370
     11 C11        13.7190    9.3120   37.7850 C.ar      1 TMP292     -0.1600
     12 C12        16.6190   12.4560   39.9070 C.3       1 TMP292     -0.0840
     13 C13        11.3590   10.0780   39.0450 C.ar      1 TMP292     -0.0600
     14 C14        12.5520    8.6490   37.5100 C.ar      1 TMP292     -0.0630
     15 C15        16.7350   13.6700   40.6540 C.ar      1 TMP292     -0.1210
     16 C16        16.9160   16.0200   42.1350 C.ar      1 TMP292      0.1510
     17 C17        13.7310   10.3610   38.6910 C.ar      1 TMP292      0.1600
     18 C18        15.1740   12.1210   39.4880 C.2       1 TMP292      0.5030
     19 C19        17.3560   19.1600   41.5750 C.2       1 TMP292      0.4610
     20 C20        17.8480   18.3880   42.7660 C.3       1 TMP292      0.0670
     21 N21        14.9440   10.8710   39.1070 N.am      1 TMP292     -0.6660
     22 O22        18.1830   19.7500   40.8410 O.co2     1 TMP292     -0.6950
     23 O23        14.2560   12.8940   39.7590 O.2       1 TMP292     -0.5090
     24 O24        16.1210   19.1690   41.3350 O.co2     1 TMP292     -0.6800
     25 O25        16.9720   17.2480   42.9740 O.3       1 TMP292     -0.3510
     26 H1         10.2080   10.4430   40.8030 H         1 TMP292      0.0720
     27 H2          9.8330   11.5210   39.4160 H         1 TMP292      0.0740
     28 H3          9.2750    9.8130   39.4040 H         1 TMP292      0.0660
     29 H4         12.3160    7.9080   35.5230 H         1 TMP292      0.0720
     30 H5         13.5620    7.0630   36.5020 H         1 TMP292      0.0670
     31 H6         11.8180    6.7690   36.8190 H         1 TMP292      0.0670
     32 H7         18.6500   19.1620   44.6170 H         1 TMP292      0.0550
     33 H8         17.6960   20.3470   43.6620 H         1 TMP292      0.0680
     34 H9         16.8580   19.0430   44.5710 H         1 TMP292      0.0650
     35 H10        19.5410   17.8910   41.4920 H         1 TMP292      0.0650
     36 H11        19.9830   18.7170   43.0250 H         1 TMP292      0.0620
     37 H12        19.4910   16.9890   43.0450 H         1 TMP292      0.0460
     38 H13        16.0540   12.7660   42.4620 H         1 TMP292      0.1190
     39 H14        17.4440   14.8240   38.9960 H         1 TMP292      0.1230
     40 H15        16.2090   14.8320   43.7750 H         1 TMP292      0.1260
     41 H16        17.6070   16.9290   40.3080 H         1 TMP292      0.1330
     42 H17        10.4500    8.4980   37.9210 H         1 TMP292      0.1210
     43 H18        12.5420   11.5680   40.0290 H         1 TMP292      0.1400
     44 H19        14.6340    9.0160   37.2950 H         1 TMP292      0.1240
     45 H20        17.2230   12.5580   38.9940 H         1 TMP292      0.1030
     46 H21        16.9640   11.6400   40.5590 H         1 TMP292      0.1010
     47 H22        15.7200   10.2400   39.1230 H         1 TMP292      0.4120
@<TRIPOS>BOND
     1    2   29 1
     2    2   30 1
     3    2   31 1
     4    2   14 1
     5   11   44 1
     6   11   14 ar
     7    9   14 ar
     8   11   17 ar
     9    9   42 1
    10    9   13 ar
    11   17   21 1
    12   10   17 ar
    13   12   45 1
    14    6   39 1
    15   10   13 ar
    16    1   13 1
    17   21   47 1
    18   18   21 am
    19   10   43 1
    20    1   28 1
    21    1   27 1
    22   18   23 2
    23   12   18 1
    24    1   26 1
    25   12   46 1
    26   12   15 1
    27    6   15 ar
    28    6    8 ar
    29    8   41 1
    30    5   15 ar
    31    8   16 ar
    32   19   22 2
    33   19   24 1
    34    4   35 1
    35   19   20 1
    36    5   38 1
    37    5    7 ar
    38    7   16 ar
    39   16   25 1
    40    4   20 1
    41    4   36 1
    42    4   37 1
    43    7   40 1
    44   20   25 1
    45    3   20 1
    46    3   33 1
    47    3   34 1
    48    3   32 1
@<TRIPOS>MOLECULE
header  -10.027
   47    48     0     0     0
SMALL
USER_CHARGES

@<TRIPOS>ATOM
      1 C1          6.9370   15.5590   37.5060 C.3       1 TMP294     -0.1180
      2 C2          5.5220   10.9680   38.9330 C.3       1 TMP294     -0.1160
      3 C3         18.1780   18.0780   42.2010 C.3       1 TMP294     -0.1230
      4 C4         17.7500   15.8240   43.1950 C.3       1 TMP294     -0.1490
      5 C5         12.6110   15.5360   42.2970 C.ar      1 TMP294     -0.0810
      6 C6         14.0440   13.8070   41.4610 C.ar      1 TMP294     -0.0800
      7 C7         13.6630   16.4270   42.2930 C.ar      1 TMP294     -0.1390
      8 C8         15.1220   14.7030   41.4530 C.ar      1 TMP294     -0.1470
      9 C9          6.2650   13.2680   38.2560 C.ar      1 TMP294     -0.1420
     10 C10         8.3050   14.2060   39.0990 C.ar      1 TMP294     -0.1370
     11 C11         7.6100   11.9960   39.7770 C.ar      1 TMP294     -0.1600
     12 C12        11.6820   13.3340   41.8800 C.3       1 TMP294     -0.0840
     13 C13         7.1740   14.3180   38.3070 C.ar      1 TMP294     -0.0600
     14 C14         6.4930   12.1080   38.9930 C.ar      1 TMP294     -0.0630
     15 C15        12.7950   14.2340   41.8830 C.ar      1 TMP294     -0.1210
     16 C16        14.9270   16.0220   41.8720 C.ar      1 TMP294      0.1510
     17 C17         8.5250   13.0360   39.8440 C.ar      1 TMP294      0.1600
     18 C18        10.7310   13.5290   40.6830 C.2       1 TMP294      0.5030
     19 C19        17.9300   16.1420   40.7170 C.2       1 TMP294      0.4610
     20 C20        17.4410   16.7540   41.9990 C.3       1 TMP294      0.0670
     21 N21         9.5250   12.9860   40.7940 N.am      1 TMP294     -0.6660
     22 O22        18.8530   15.2940   40.7530 O.co2     1 TMP294     -0.6950
     23 O23        10.9880   14.3630   39.8170 O.2       1 TMP294     -0.5090
     24 O24        17.3760   16.4840   39.6410 O.co2     1 TMP294     -0.6800
     25 O25        16.0220   17.0310   41.8700 O.3       1 TMP294     -0.3510
     26 H1          6.9250   16.4310   38.1750 H         1 TMP294      0.0720
     27 H2          7.7430   15.6770   36.7660 H         1 TMP294      0.0740
     28 H3          5.9700   15.4810   36.9870 H         1 TMP294      0.0660
     29 H4          5.7750   10.3140   38.0850 H         1 TMP294      0.0720
     30 H5          5.5740   10.3920   39.8680 H         1 TMP294      0.0670
     31 H6          4.5030   11.3610   38.8000 H         1 TMP294      0.0670
     32 H7         18.4520   18.1870   43.2620 H         1 TMP294      0.0550
     33 H8         19.0880   18.0880   41.5840 H         1 TMP294      0.0680
     34 H9         17.5230   18.9100   41.9040 H         1 TMP294      0.0650
     35 H10        17.8120   14.7830   42.8450 H         1 TMP294      0.0650
     36 H11        18.7090   16.1150   43.6480 H         1 TMP294      0.0620
     37 H12        16.9490   15.9120   43.9450 H         1 TMP294      0.0460
     38 H13        11.6350   15.8610   42.6260 H         1 TMP294      0.1190
     39 H14        14.1860   12.7860   41.1400 H         1 TMP294      0.1230
     40 H15        13.5060   17.4450   42.6190 H         1 TMP294      0.1260
     41 H16        16.0970   14.3760   41.1240 H         1 TMP294      0.1330
     42 H17         5.3810   13.3520   37.6420 H         1 TMP294      0.1210
     43 H18         9.0160   15.0180   39.1450 H         1 TMP294      0.1400
     44 H19         7.7810   11.0940   40.3450 H         1 TMP294      0.1240
     45 H20        12.0740   12.3080   41.8410 H         1 TMP294      0.1030
     46 H21        11.1000   13.5370   42.7910 H         1 TMP294      0.1010
     47 H22         9.3220   12.4970   41.6410 H         1 TMP294      0.4120
@<TRIPOS>BOND
     1    1   27 1
     2    1   28 1
     3    1   26 1
     4    1   13 1
     5    9   42 1
     6    2   29 1
     7    9   13 ar
     8    9   14 ar
     9   10   13 ar
    10    2   31 1
    11    2   14 1
    12    2   30 1
    13   11   14 ar
    14   10   43 1
    15   10   17 ar
    16   19   24 1
    17   11   17 ar
    18   11   44 1
    19   18   23 2
    20   17   21 1
    21   18   21 am
    22   12   18 1
    23   19   22 2
    24   19   20 1
    25   21   47 1
    26    8   41 1
    27    6   39 1
    28    6    8 ar
    29    8   16 ar
    30    6   15 ar
    31    3   33 1
    32   12   45 1
    33   16   25 1
    34   20   25 1
    35    7   16 ar
    36   12   15 1
    37   12   46 1
    38    5   15 ar
    39    3   34 1
    40    3   20 1
    41    4   20 1
    42    3   32 1
    43    5    7 ar
    44    7   40 1
    45    5   38 1
    46    4   35 1
    47    4   36 1
    48    4   37 1
@<TRIPOS>MOLECULE
header  -13.246
   47    48     0     0     0
SMALL
USER_CHARGES

@<TRIPOS>ATOM
      1 C1         17.6500   12.1320   40.7820 C.3       1 TMP296     -0.1180
      2 C2         22.2940   14.0100   40.6270 C.3       1 TMP296     -0.1160
      3 C3          9.4790   21.3990   42.2290 C.3       1 TMP296     -0.1230
      4 C4         11.6360   22.6590   42.3200 C.3       1 TMP296     -0.1490
      5 C5         14.8670   18.6240   43.0760 C.ar      1 TMP296     -0.0810
      6 C6         15.2320   20.0820   41.2090 C.ar      1 TMP296     -0.0800
      7 C7         13.5290   18.9590   43.0920 C.ar      1 TMP296     -0.1390
      8 C8         13.8740   20.4300   41.2150 C.ar      1 TMP296     -0.1470
      9 C9         19.9510   13.1130   40.7260 C.ar      1 TMP296     -0.1420
     10 C10        18.0920   14.5590   41.1740 C.ar      1 TMP296     -0.1370
     11 C11        20.3340   15.4490   41.0950 C.ar      1 TMP296     -0.1600
     12 C12        17.0960   18.8000   42.1350 C.3       1 TMP296     -0.0840
     13 C13        18.5850   13.2940   40.8990 C.ar      1 TMP296     -0.0600
     14 C14        20.8210   14.1980   40.8240 C.ar      1 TMP296     -0.0630
     15 C15        15.7160   19.1780   42.1410 C.ar      1 TMP296     -0.1210
     16 C16        13.0190   19.8630   42.1640 C.ar      1 TMP296      0.1510
     17 C17        18.9740   15.6470   41.2760 C.ar      1 TMP296      0.1600
     18 C18        17.3600   17.4260   41.4890 C.2       1 TMP296      0.5030
     19 C19        10.9390   21.4160   40.2600 C.2       1 TMP296      0.4610
     20 C20        10.9340   21.4000   41.7620 C.3       1 TMP296      0.0670
     21 N21        18.5340   16.8650   41.7530 N.am      1 TMP296     -0.6660
     22 O22        11.0450   22.5100   39.6570 O.co2     1 TMP296     -0.6950
     23 O23        16.4340   16.7860   40.9950 O.2       1 TMP296     -0.5090
     24 O24        10.8620   20.3200   39.6490 O.co2     1 TMP296     -0.6800
     25 O25        11.5640   20.1730   42.2150 O.3       1 TMP296     -0.3510
     26 H1         17.0670   12.0350   41.7100 H         1 TMP296      0.0720
     27 H2         16.9660   12.2960   39.9350 H         1 TMP296      0.0740
     28 H3         18.2290   11.2120   40.6140 H         1 TMP296      0.0660
     29 H4         22.5350   14.0900   39.5570 H         1 TMP296      0.0720
     30 H5         22.8400   14.7850   41.1840 H         1 TMP296      0.0670
     31 H6         22.5890   13.0160   40.9960 H         1 TMP296      0.0670
     32 H7          9.3710   22.0680   43.0960 H         1 TMP296      0.0550
     33 H8          8.8320   21.7510   41.4120 H         1 TMP296      0.0680
     34 H9          9.1860   20.3780   42.5150 H         1 TMP296      0.0650
     35 H10        12.3640   23.0310   41.5840 H         1 TMP296      0.0650
     36 H11        10.8860   23.4390   42.5180 H         1 TMP296      0.0620
     37 H12        12.1570   22.4050   43.2550 H         1 TMP296      0.0460
     38 H13        15.2530   17.9220   43.8010 H         1 TMP296      0.1190
     39 H14        15.8990   20.5160   40.4800 H         1 TMP296      0.1230
     40 H15        12.8740   18.5170   43.8290 H         1 TMP296      0.1260
     41 H16        13.4910   21.1330   40.4900 H         1 TMP296      0.1330
     42 H17        20.3410   12.1280   40.5160 H         1 TMP296      0.1210
     43 H18        17.0310   14.7080   41.3100 H         1 TMP296      0.1400
     44 H19        21.0130   16.2850   41.1690 H         1 TMP296      0.1240
     45 H20        17.6550   19.5580   41.5670 H         1 TMP296      0.1030
     46 H21        17.4170   18.7300   43.1850 H         1 TMP296      0.1010
     47 H22        19.1560   17.3710   42.3500 H         1 TMP296      0.4120
@<TRIPOS>BOND
     1    2   29 1
     2   19   24 1
     3   19   22 2
     4    1   27 1
     5   19   20 1
     6    6   39 1
     7    8   41 1
     8    9   42 1
     9    1   28 1
    10    2   14 1
    11    2   31 1
    12    2   30 1
    13    9   14 ar
    14    9   13 ar
    15    1   13 1
    16    1   26 1
    17   11   14 ar
    18   10   13 ar
    19   18   23 2
    20   11   44 1
    21   11   17 ar
    22   10   17 ar
    23   10   43 1
    24    6    8 ar
    25    6   15 ar
    26    8   16 ar
    27   17   21 1
    28    3   33 1
    29   18   21 am
    30   12   18 1
    31   12   45 1
    32    4   35 1
    33   21   47 1
    34   20   25 1
    35    3   20 1
    36    4   20 1
    37   12   15 1
    38   12   46 1
    39    5   15 ar
    40   16   25 1
    41    7   16 ar
    42    3   34 1
    43    3   32 1
    44    4   36 1
    45    4   37 1
    46    5    7 ar
    47    5   38 1
    48    7   40 1
@<TRIPOS>MOLECULE
header  -13.977
   47    48     0     0     0
SMALL
USER_CHARGES

@<TRIPOS>ATOM
      1 C1         17.2380   16.9180   43.8810 C.3       1 TMP4       -0.1120
      2 C2         17.8050   16.6490   42.5120 C.ar      1 TMP4       -0.0660
      3 C3         17.8750   17.6680   41.5790 C.ar      1 TMP4       -0.1420
      4 C4         18.3950   17.4250   40.3220 C.ar      1 TMP4       -0.0630
      5 C5         18.8490   16.1620   39.9930 C.ar      1 TMP4       -0.1290
      6 C6         18.7810   15.1370   40.9270 C.ar      1 TMP4        0.1610
      7 C7         18.2630   15.3860   42.1910 C.ar      1 TMP4       -0.1580
      8 N8         19.2400   13.8570   40.5970 N.am      1 TMP4       -0.6820
      9 C9         18.4680   18.5390   39.3080 C.3       1 TMP4       -0.1140
     10 H1         16.9320   17.9630   43.9480 H         1 TMP4        0.0700
     11 H2         16.3740   16.2750   44.0490 H         1 TMP4        0.0660
     12 H3         17.9960   16.7130   44.6360 H         1 TMP4        0.0650
     13 H4         17.5210   18.6560   41.8340 H         1 TMP4        0.1200
     14 H5         19.2550   15.9730   39.0110 H         1 TMP4        0.1360
     15 H6         18.2130   14.5910   42.9200 H         1 TMP4        0.1230
     16 H7         18.9030   18.1600   38.3840 H         1 TMP4        0.0720
     17 H8         17.4650   18.9150   39.1110 H         1 TMP4        0.0670
     18 H9         19.0880   19.3450   39.6990 H         1 TMP4        0.0650
     19 C10        18.6810   13.1850   39.5700 C.2       1 TMP4        0.5110
     20 O11        17.7810   13.6910   38.9320 O.2       1 TMP4       -0.5000
     21 C12        19.1740   11.8060   39.2140 C.3       1 TMP4       -0.0850
     22 H10        19.9590   13.4520   41.1070 H         1 TMP4        0.4100
     23 C13        18.0410   10.8200   39.3380 C.ar      1 TMP4       -0.1310
     24 H11        19.5450   11.8060   38.1890 H         1 TMP4        0.1000
     25 H12        19.9790   11.5220   39.8930 H         1 TMP4        0.1000
     26 C14        17.0330   11.0400   40.2570 C.ar      1 TMP4       -0.0790
     27 C15        15.9930   10.1370   40.3720 C.ar      1 TMP4       -0.1710
     28 C16        15.9630    9.0090   39.5650 C.ar      1 TMP4        0.1720
     29 C17        16.9750    8.7920   38.6420 C.ar      1 TMP4       -0.1520
     30 C18        18.0090    9.7000   38.5270 C.ar      1 TMP4       -0.0790
     31 O19        14.9420    8.1190   39.6770 O.3       1 TMP4       -0.3040
     32 H13        17.0580   11.9170   40.8860 H         1 TMP4        0.1140
     33 H14        15.2060   10.3080   41.0910 H         1 TMP4        0.1190
     34 H15        16.9540    7.9150   38.0120 H         1 TMP4        0.1400
     35 H16        18.7970    9.5340   37.8070 H         1 TMP4        0.1100
     36 C20        13.7950    8.3410   38.8530 C.3       1 TMP4        0.0300
     37 C21        12.7950    9.2280   39.5990 C.3       1 TMP4       -0.1150
     38 C22        14.2220    9.0340   37.5580 C.3       1 TMP4       -0.1710
     39 C23        13.1470    7.0200   38.5280 C.2       1 TMP4        0.4820
     40 O24        13.6240    5.9840   38.9590 O.co2     1 TMP4       -0.6700
     41 O25        12.1470    6.9860   37.8300 O.co2     1 TMP4       -0.6860
     42 H17        11.9200    9.3970   38.9710 H         1 TMP4        0.0500
     43 H18        12.4900    8.7350   40.5220 H         1 TMP4        0.0780
     44 H19        13.2630   10.1840   39.8350 H         1 TMP4        0.0570
     45 H20        13.3480    9.2020   36.9300 H         1 TMP4        0.0670
     46 H21        14.6900    9.9890   37.7930 H         1 TMP4        0.0720
     47 H22        14.9350    8.4010   37.0260 H         1 TMP4        0.0510
@<TRIPOS>BOND
     1   38   45 1
     2   38   47 1
     3   38   46 1
     4   36   38 1
     5   30   35 1
     6   39   41 1
     7   29   34 1
     8   21   24 1
     9    9   16 1
    10   29   30 ar
    11   23   30 ar
    12   36   39 1
    13   39   40 2
    14   28   29 ar
    15   36   37 1
    16   31   36 1
    17   19   20 2
    18   37   42 1
    19    5   14 1
    20    9   17 1
    21   21   23 1
    22   19   21 1
    23   21   25 1
    24    9   18 1
    25    4    9 1
    26   23   26 ar
    27   28   31 1
    28   27   28 ar
    29    8   19 am
    30   37   44 1
    31   37   43 1
    32    4    5 ar
    33    5    6 ar
    34   26   27 ar
    35   26   32 1
    36    3    4 ar
    37   27   33 1
    38    6    8 1
    39    8   22 1
    40    6    7 ar
    41    3   13 1
    42    2    3 ar
    43    2    7 ar
    44    7   15 1
    45    1    2 1
    46    1   10 1
    47    1   11 1
    48    1   12 1
@<TRIPOS>MOLECULE
header  -25.000
   47    48     0     0     0
SMALL
USER_CHARGES

@<TRIPOS>ATOM
      1 C1         18.0480   18.9490   42.7340 C.3       1 TMP9       -0.1120
      2 C2         17.5930   19.3460   41.3540 C.ar      1 TMP9       -0.0660
      3 C3         18.1240   18.7170   40.2420 C.ar      1 TMP9       -0.1420
      4 C4         17.7080   19.0790   38.9740 C.ar      1 TMP9       -0.0630
      5 C5         16.7590   20.0700   38.8140 C.ar      1 TMP9       -0.1290
      6 C6         16.2240   20.7040   39.9270 C.ar      1 TMP9        0.1610
      7 C7         16.6400   20.3340   41.2000 C.ar      1 TMP9       -0.1580
      8 N8         15.2630   21.7090   39.7680 N.am      1 TMP9       -0.6820
      9 C9         18.2910   18.3920   37.7660 C.3       1 TMP9       -0.1140
     10 H1         18.7970   18.1600   42.6550 H         1 TMP9        0.0700
     11 H2         18.4820   19.8130   43.2360 H         1 TMP9        0.0660
     12 H3         17.1960   18.5840   43.3070 H         1 TMP9        0.0650
     13 H4         18.8660   17.9420   40.3650 H         1 TMP9        0.1200
     14 H5         16.4350   20.3530   37.8230 H         1 TMP9        0.1360
     15 H6         16.2220   20.8220   42.0680 H         1 TMP9        0.1230
     16 H7         17.8450   18.8070   36.8620 H         1 TMP9        0.0720
     17 H8         19.3690   18.5470   37.7450 H         1 TMP9        0.0670
     18 H9         18.0780   17.3240   37.8180 H         1 TMP9        0.0650
     19 C10        15.5060   22.9520   40.2290 C.2       1 TMP9        0.5110
     20 O11        16.5570   23.2000   40.7810 O.2       1 TMP9       -0.5000
     21 C12        14.4720   24.0350   40.0570 C.3       1 TMP9       -0.0850
     22 H10        14.4230   21.5110   39.3260 H         1 TMP9        0.4100
     23 C13        13.1990   23.6290   40.7560 C.ar      1 TMP9       -0.1310
     24 H11        14.8430   24.9640   40.4880 H         1 TMP9        0.1000
     25 H12        14.2720   24.1810   38.9960 H         1 TMP9        0.1000
     26 C14        13.2550   22.8190   41.8740 C.ar      1 TMP9       -0.0790
     27 C15        12.0900   22.4440   42.5160 C.ar      1 TMP9       -0.1710
     28 C16        10.8640   22.8850   42.0390 C.ar      1 TMP9        0.1720
     29 C17        10.8120   23.6990   40.9170 C.ar      1 TMP9       -0.1520
     30 C18        11.9790   24.0730   40.2810 C.ar      1 TMP9       -0.0790
     31 O19         9.7170   22.5190   42.6690 O.3       1 TMP9       -0.3040
     32 H13        14.2090   22.4760   42.2460 H         1 TMP9        0.1140
     33 H14        12.1340   21.8110   43.3900 H         1 TMP9        0.1190
     34 H15         9.8580   24.0440   40.5440 H         1 TMP9        0.1400
     35 H16        11.9390   24.7120   39.4100 H         1 TMP9        0.1100
     36 C20         9.0900   21.3140   42.2250 C.3       1 TMP9        0.0300
     37 C21         9.6340   20.1300   43.0270 C.3       1 TMP9       -0.1150
     38 C22         7.5780   21.4210   42.4340 C.3       1 TMP9       -0.1710
     39 C23         9.3810   21.1050   40.7620 C.2       1 TMP9        0.4820
     40 O24        10.3680   20.4760   40.4200 O.co2     1 TMP9       -0.6700
     41 O25         8.6300   21.5660   39.9190 O.co2     1 TMP9       -0.6860
     42 H17         9.1550   19.2120   42.6900 H         1 TMP9        0.0500
     43 H18        10.7110   20.0550   42.8780 H         1 TMP9        0.0780
     44 H19         9.4230   20.2820   44.0860 H         1 TMP9        0.0570
     45 H20         7.0990   20.5010   42.0960 H         1 TMP9        0.0670
     46 H21         7.3670   21.5710   43.4930 H         1 TMP9        0.0720
     47 H22         7.1900   22.2630   41.8620 H         1 TMP9        0.0510
@<TRIPOS>BOND
     1    9   16 1
     2    9   17 1
     3    9   18 1
     4    4    9 1
     5    5   14 1
     6    4    5 ar
     7    5    6 ar
     8    3    4 ar
     9   21   25 1
    10    8   22 1
    11   30   35 1
    12    6    8 1
    13    8   19 am
    14   39   41 1
    15    6    7 ar
    16   19   21 1
    17   21   24 1
    18   21   23 1
    19   19   20 2
    20    3   13 1
    21    2    3 ar
    22   23   30 ar
    23   29   30 ar
    24   39   40 2
    25   29   34 1
    26   23   26 ar
    27   36   39 1
    28   28   29 ar
    29    2    7 ar
    30    7   15 1
    31    1    2 1
    32   38   47 1
    33   26   32 1
    34   26   27 ar
    35   27   28 ar
    36   28   31 1
    37   38   45 1
    38   36   38 1
    39   31   36 1
    40   36   37 1
    41   38   46 1
    42   27   33 1
    43    1   10 1
    44   37   42 1
    45    1   11 1
    46    1   12 1
    47   37   43 1
    48   37   44 1
@<TRIPOS>MOLECULE
header  -38.854
   47    48     0     0     0
SMALL
USER_CHARGES

@<TRIPOS>ATOM
      1 C1         19.8870   16.7760   40.7700 C.3       1 TMP10      -0.1120
      2 C2         18.8910   17.7740   40.2390 C.ar      1 TMP10      -0.0660
      3 C3         18.7560   17.9560   38.8740 C.ar      1 TMP10      -0.1420
      4 C4         17.8420   18.8710   38.3830 C.ar      1 TMP10      -0.0630
      5 C5         17.0600   19.6040   39.2540 C.ar      1 TMP10      -0.1290
      6 C6         17.1930   19.4230   40.6250 C.ar      1 TMP10       0.1610
      7 C7         18.1080   18.5000   41.1150 C.ar      1 TMP10      -0.1580
      8 N8         16.4030   20.1650   41.5100 N.am      1 TMP10      -0.6820
      9 C9         17.6990   19.0670   36.8950 C.3       1 TMP10      -0.1140
     10 H1         20.4080   16.3040   39.9360 H         1 TMP10       0.0700
     11 H2         20.6100   17.2880   41.4060 H         1 TMP10       0.0660
     12 H3         19.3660   16.0160   41.3500 H         1 TMP10       0.0650
     13 H4         19.3660   17.3840   38.1910 H         1 TMP10       0.1200
     14 H5         16.3470   20.3180   38.8700 H         1 TMP10       0.1360
     15 H6         18.2110   18.3540   42.1790 H         1 TMP10       0.1230
     16 H7         16.9370   19.8220   36.7010 H         1 TMP10       0.0720
     17 H8         18.6510   19.3960   36.4800 H         1 TMP10       0.0670
     18 H9         17.4060   18.1260   36.4320 H         1 TMP10       0.0650
     19 C10        15.9890   21.4020   41.1690 C.2       1 TMP10       0.5110
     20 O11        16.3020   21.8710   40.0950 O.2       1 TMP10      -0.5000
     21 C12        15.1390   22.2010   42.1230 C.3       1 TMP10      -0.0850
     22 H10        16.1530   19.7890   42.3690 H         1 TMP10       0.4100
     23 C13        13.8200   22.5240   41.4690 C.ar      1 TMP10      -0.1310
     24 H11        14.9630   21.6200   43.0280 H         1 TMP10       0.1000
     25 H12        15.6540   23.1270   42.3790 H         1 TMP10       0.1000
     26 C14        12.7520   21.6570   41.6050 C.ar      1 TMP10      -0.0790
     27 C15        11.5420   21.9500   41.0080 C.ar      1 TMP10      -0.1710
     28 C16        11.3990   23.1160   40.2690 C.ar      1 TMP10       0.1720
     29 C17        12.4720   23.9840   40.1340 C.ar      1 TMP10      -0.1520
     30 C18        13.6790   23.6890   40.7370 C.ar      1 TMP10      -0.0790
     31 O19        10.2100   23.4070   39.6790 O.3       1 TMP10      -0.3040
     32 H13        12.8630   20.7500   42.1810 H         1 TMP10       0.1140
     33 H14        10.7080   21.2730   41.1130 H         1 TMP10       0.1190
     34 H15        12.3630   24.8930   39.5590 H         1 TMP10       0.1400
     35 H16        14.5130   24.3670   40.6370 H         1 TMP10       0.1100
     36 C20        10.0110   22.9260   38.3480 C.3       1 TMP10       0.0300
     37 C21         8.6250   23.3480   37.8540 C.3       1 TMP10      -0.1150
     38 C22        11.0810   23.5160   37.4280 C.3       1 TMP10      -0.1710
     39 C23        10.1120   21.4230   38.3370 C.2       1 TMP10       0.4820
     40 O24         9.1150   20.7430   38.5120 O.co2     1 TMP10      -0.6700
     41 O25        11.1900   20.8850   38.1520 O.co2     1 TMP10      -0.6860
     42 H17         8.4740   22.9820   36.8390 H         1 TMP10       0.0500
     43 H18         7.8630   22.9270   38.5100 H         1 TMP10       0.0780
     44 H19         8.5520   24.4360   37.8630 H         1 TMP10       0.0570
     45 H20        10.9300   23.1490   36.4120 H         1 TMP10       0.0670
     46 H21        11.0090   24.6030   37.4360 H         1 TMP10       0.0720
     47 H22        12.0690   23.2150   37.7790 H         1 TMP10       0.0510
@<TRIPOS>BOND
     1   38   45 1
     2    9   18 1
     3    9   17 1
     4    9   16 1
     5   37   42 1
     6    4    9 1
     7   38   46 1
     8   38   47 1
     9   36   38 1
    10   37   44 1
    11   36   37 1
    12   37   43 1
    13   39   41 2
    14    3   13 1
    15   36   39 1
    16   39   40 1
    17   31   36 1
    18    3    4 ar
    19    4    5 ar
    20    5   14 1
    21    2    3 ar
    22    5    6 ar
    23   29   34 1
    24   28   31 1
    25    1   10 1
    26   19   20 2
    27   28   29 ar
    28   29   30 ar
    29    1    2 1
    30    2    7 ar
    31   27   28 ar
    32    6    7 ar
    33    6    8 1
    34   30   35 1
    35   23   30 ar
    36    1   12 1
    37    1   11 1
    38   27   33 1
    39   26   27 ar
    40    7   15 1
    41    8   19 am
    42   19   21 1
    43   23   26 ar
    44   21   23 1
    45    8   22 1
    46   26   32 1
    47   21   25 1
    48   21   24 1
@<TRIPOS>MOLECULE
header  -17.775
   47    48     0     0     0
SMALL
USER_CHARGES

@<TRIPOS>ATOM
      1 C1         11.4510   15.3450   37.1620 C.3       1 TMP11      -0.1120
      2 C2         10.4780   16.4930   37.0920 C.ar      1 TMP11      -0.0660
      3 C3          9.1170   16.2470   37.1030 C.ar      1 TMP11      -0.1420
      4 C4          8.2210   17.2980   37.0390 C.ar      1 TMP11      -0.0630
      5 C5          8.6830   18.5980   36.9650 C.ar      1 TMP11      -0.1290
      6 C6         10.0490   18.8490   36.9540 C.ar      1 TMP11       0.1610
      7 C7         10.9460   17.7910   37.0240 C.ar      1 TMP11      -0.1580
      8 N8         10.5190   20.1640   36.8780 N.am      1 TMP11      -0.6820
      9 C9          6.7380   17.0250   37.0510 C.3       1 TMP11      -0.1140
     10 H1         10.9010   14.4050   37.2100 H         1 TMP11       0.0700
     11 H2         12.0840   15.3500   36.2740 H         1 TMP11       0.0660
     12 H3         12.0720   15.4490   38.0510 H         1 TMP11       0.0650
     13 H4          8.7540   15.2320   37.1610 H         1 TMP11       0.1200
     14 H5          7.9820   19.4180   36.9150 H         1 TMP11       0.1360
     15 H6         12.0080   17.9830   37.0190 H         1 TMP11       0.1230
     16 H7          6.1950   17.9690   36.9940 H         1 TMP11       0.0720
     17 H8          6.4770   16.4040   36.1950 H         1 TMP11       0.0670
     18 H9          6.4720   16.5070   37.9710 H         1 TMP11       0.0650
     19 C10        11.2990   20.5420   35.8450 C.2       1 TMP11       0.5110
     20 O11        11.5920   19.7420   34.9820 O.2       1 TMP11      -0.5000
     21 C12        11.8060   21.9590   35.7630 C.3       1 TMP11      -0.0850
     22 H10        10.2850   20.8040   37.5680 H         1 TMP11       0.4100
     23 C13        12.6410   22.2650   36.9800 C.ar      1 TMP11      -0.1310
     24 H11        12.4140   22.0760   34.8660 H         1 TMP11       0.1000
     25 H12        10.9610   22.6450   35.7210 H         1 TMP11       0.1000
     26 C14        14.0010   22.0210   36.9630 C.ar      1 TMP11      -0.0790
     27 C15        14.7690   22.3000   38.0760 C.ar      1 TMP11      -0.1710
     28 C16        14.1730   22.8260   39.2140 C.ar      1 TMP11       0.1720
     29 C17        12.8070   23.0700   39.2290 C.ar      1 TMP11      -0.1520
     30 C18        12.0450   22.7940   38.1110 C.ar      1 TMP11      -0.0790
     31 O19        14.9260   23.1010   40.3110 O.3       1 TMP11      -0.3040
     32 H13        14.4650   21.6120   36.0770 H         1 TMP11       0.1140
     33 H14        15.8320   22.1090   38.0620 H         1 TMP11       0.1190
     34 H15        12.3410   23.4790   40.1130 H         1 TMP11       0.1400
     35 H16        10.9830   22.9880   38.1200 H         1 TMP11       0.1100
     36 C20        15.0790   22.0540   41.2720 C.3       1 TMP11       0.0300
     37 C21        16.4310   22.2000   41.9740 C.3       1 TMP11      -0.1150
     38 C22        13.9560   22.1430   42.3070 C.3       1 TMP11      -0.1710
     39 C23        15.0160   20.7200   40.5750 C.2       1 TMP11       0.4820
     40 O24        16.0360   20.2030   40.1520 O.co2     1 TMP11      -0.6700
     41 O25        13.9440   20.1560   40.4340 O.co2     1 TMP11      -0.6860
     42 H17        16.5480   21.4010   42.7060 H         1 TMP11       0.0500
     43 H18        17.2320   22.1370   41.2360 H         1 TMP11       0.0780
     44 H19        16.4770   23.1640   42.4770 H         1 TMP11       0.0570
     45 H20        14.0730   21.3440   43.0400 H         1 TMP11       0.0670
     46 H21        14.0010   23.1080   42.8110 H         1 TMP11       0.0720
     47 H22        12.9930   22.0390   41.8070 H         1 TMP11       0.0510
@<TRIPOS>BOND
     1   21   24 1
     2   19   20 2
     3   21   25 1
     4   19   21 1
     5   21   23 1
     6    8   19 am
     7   26   32 1
     8    9   17 1
     9    1   11 1
    10    6    8 1
    11    8   22 1
    12    5   14 1
    13    5    6 ar
    14    6    7 ar
    15   23   26 ar
    16   26   27 ar
    17    4    5 ar
    18   23   30 ar
    19    9   16 1
    20    7   15 1
    21    2    7 ar
    22    4    9 1
    23    3    4 ar
    24    9   18 1
    25    2    3 ar
    26    1    2 1
    27    3   13 1
    28    1   10 1
    29    1   12 1
    30   27   33 1
    31   27   28 ar
    32   30   35 1
    33   29   30 ar
    34   28   29 ar
    35   28   31 1
    36   29   34 1
    37   39   40 2
    38   31   36 1
    39   39   41 1
    40   36   39 1
    41   37   43 1
    42   36   37 1
    43   36   38 1
    44   38   47 1
    45   37   44 1
    46   37   42 1
    47   38   46 1
    48   38   45 1
@<TRIPOS>MOLECULE
header  -11.772
   47    48     0     0     0
SMALL
USER_CHARGES

@<TRIPOS>ATOM
      1 C1         16.5920   18.8510   44.6910 C.3       1 TMP15      -0.1120
      2 C2         16.9450   19.1110   43.2490 C.ar      1 TMP15      -0.0660
      3 C3         16.5700   20.3010   42.6500 C.ar      1 TMP15      -0.1420
      4 C4         16.8920   20.5430   41.3280 C.ar      1 TMP15      -0.0630
      5 C5         17.5910   19.5990   40.6010 C.ar      1 TMP15      -0.1290
      6 C6         17.9690   18.4040   41.1990 C.ar      1 TMP15       0.1610
      7 C7         17.6480   18.1660   42.5290 C.ar      1 TMP15      -0.1580
      8 N8         18.6750   17.4460   40.4660 N.am      1 TMP15      -0.6820
      9 C9         16.4810   21.8400   40.6790 C.3       1 TMP15      -0.1140
     10 H1         16.0420   19.7030   45.0900 H         1 TMP15       0.0700
     11 H2         15.9730   17.9560   44.7570 H         1 TMP15       0.0660
     12 H3         17.5050   18.7050   45.2680 H         1 TMP15       0.0650
     13 H4         16.0240   21.0400   43.2160 H         1 TMP15       0.1200
     14 H5         17.8420   19.7890   39.5680 H         1 TMP15       0.1360
     15 H6         17.9440   17.2390   42.9990 H         1 TMP15       0.1230
     16 H7         16.8200   21.8510   39.6430 H         1 TMP15       0.0720
     17 H8         15.3960   21.9320   40.7070 H         1 TMP15       0.0670
     18 H9         16.9300   22.6740   41.2170 H         1 TMP15       0.0650
     19 C10        18.4900   17.3440   39.1340 C.2       1 TMP15       0.5110
     20 O11        17.7100   18.0850   38.5730 O.2       1 TMP15      -0.5000
     21 C12        19.2510   16.3110   38.3430 C.3       1 TMP15      -0.0850
     22 H10        19.2990   16.8530   40.9150 H         1 TMP15       0.4100
     23 C13        18.9190   14.9360   38.8630 C.ar      1 TMP15      -0.1310
     24 H11        18.9710   16.3800   37.2920 H         1 TMP15       0.1000
     25 H12        20.3210   16.4910   38.4470 H         1 TMP15       0.1000
     26 C14        17.6760   14.6890   39.4160 C.ar      1 TMP15      -0.0790
     27 C15        17.3690   13.4290   39.8930 C.ar      1 TMP15      -0.1710
     28 C16        18.3100   12.4110   39.8170 C.ar      1 TMP15       0.1720
     29 C17        19.5560   12.6630   39.2610 C.ar      1 TMP15      -0.1520
     30 C18        19.8560   13.9220   38.7810 C.ar      1 TMP15      -0.0790
     31 O19        18.0100   11.1710   40.2860 O.3       1 TMP15      -0.3040
     32 H13        16.9440   15.4810   39.4740 H         1 TMP15       0.1140
     33 H14        16.3980   13.2360   40.3260 H         1 TMP15       0.1190
     34 H15        20.2890   11.8720   39.2010 H         1 TMP15       0.1400
     35 H16        20.8240   14.1170   38.3440 H         1 TMP15       0.1100
     36 C20        17.4220   10.2540   39.3620 C.3       1 TMP15       0.0300
     37 C21        18.3750   10.0290   38.1880 C.3       1 TMP15      -0.1150
     38 C22        17.1580    8.9200   40.0670 C.3       1 TMP15      -0.1710
     39 C23        16.1210   10.8180   38.8540 C.2       1 TMP15       0.4820
     40 O24        16.1080   11.5150   37.8530 O.co2     1 TMP15      -0.6700
     41 O25        15.0800   10.5780   39.4410 O.co2     1 TMP15      -0.6860
     42 H17        17.9260    9.3280   37.4840 H         1 TMP15       0.0500
     43 H18        18.5630   10.9780   37.6860 H         1 TMP15       0.0780
     44 H19        19.3170    9.6210   38.5560 H         1 TMP15       0.0570
     45 H20        16.7090    8.2210   39.3630 H         1 TMP15       0.0670
     46 H21        18.0990    8.5120   40.4360 H         1 TMP15       0.0720
     47 H22        16.4780    9.0810   40.9040 H         1 TMP15       0.0510
@<TRIPOS>BOND
     1   21   24 1
     2   37   42 1
     3   37   43 1
     4   39   40 1
     5   37   44 1
     6   36   37 1
     7   21   25 1
     8   21   23 1
     9   19   21 1
    10   30   35 1
    11   19   20 2
    12   23   30 ar
    13   29   30 ar
    14   36   39 1
    15   39   41 2
    16   23   26 ar
    17    8   19 am
    18   29   34 1
    19   28   29 ar
    20   36   38 1
    21   31   36 1
    22   38   45 1
    23   26   32 1
    24   26   27 ar
    25    5   14 1
    26    9   16 1
    27   27   28 ar
    28   28   31 1
    29   27   33 1
    30   38   46 1
    31   38   47 1
    32    8   22 1
    33    6    8 1
    34    5    6 ar
    35    4    5 ar
    36    9   17 1
    37    9   18 1
    38    4    9 1
    39    6    7 ar
    40    3    4 ar
    41    7   15 1
    42    2    7 ar
    43    3   13 1
    44    2    3 ar
    45    1    2 1
    46    1   11 1
    47    1   10 1
    48    1   12 1
@<TRIPOS>MOLECULE
header  -18.118
   47    48     0     0     0
SMALL
USER_CHARGES

@<TRIPOS>ATOM
      1 C1         15.7120   19.5480   44.4420 C.3       1 TMP16      -0.1120
      2 C2         16.5310   19.2560   43.2120 C.ar      1 TMP16      -0.0660
      3 C3         17.6570   18.4570   43.3040 C.ar      1 TMP16      -0.1420
      4 C4         18.4110   18.1860   42.1770 C.ar      1 TMP16      -0.0630
      5 C5         18.0410   18.7120   40.9550 C.ar      1 TMP16      -0.1290
      6 C6         16.9120   19.5150   40.8580 C.ar      1 TMP16       0.1610
      7 C7         16.1540   19.7800   41.9910 C.ar      1 TMP16      -0.1580
      8 N8         16.5360   20.0500   39.6220 N.am      1 TMP16      -0.6820
      9 C9         19.6370   17.3160   42.2830 C.3       1 TMP16      -0.1140
     10 H1         16.1610   19.0520   45.3030 H         1 TMP16       0.0700
     11 H2         15.6870   20.6230   44.6150 H         1 TMP16       0.0660
     12 H3         14.6970   19.1780   44.2990 H         1 TMP16       0.0650
     13 H4         17.9470   18.0440   44.2590 H         1 TMP16       0.1200
     14 H5         18.6310   18.5010   40.0750 H         1 TMP16       0.1360
     15 H6         15.2730   20.4000   41.9190 H         1 TMP16       0.1230
     16 H7         20.0970   17.2160   41.3000 H         1 TMP16       0.0720
     17 H8         20.3470   17.7710   42.9720 H         1 TMP16       0.0670
     18 H9         19.3520   16.3310   42.6520 H         1 TMP16       0.0650
     19 C10        15.8880   21.2310   39.5670 C.2       1 TMP16       0.5110
     20 O11        15.6310   21.8300   40.5900 O.2       1 TMP16      -0.5000
     21 C12        15.4840   21.8080   38.2350 C.3       1 TMP16      -0.0850
     22 H10        16.7410   19.5710   38.8030 H         1 TMP16       0.4100
     23 C13        13.9860   21.9740   38.1940 C.ar      1 TMP16      -0.1310
     24 H11        15.9610   22.7790   38.1000 H         1 TMP16       0.1000
     25 H12        15.7970   21.1350   37.4370 H         1 TMP16       0.1000
     26 C14        13.4110   23.1570   38.6210 C.ar      1 TMP16      -0.0790
     27 C15        12.0390   23.3120   38.5840 C.ar      1 TMP16      -0.1710
     28 C16        11.2380   22.2790   38.1180 C.ar      1 TMP16       0.1720
     29 C17        11.8170   21.0940   37.6910 C.ar      1 TMP16      -0.1520
     30 C18        13.1910   20.9460   37.7240 C.ar      1 TMP16      -0.0790
     31 O19         9.8870   22.4280   38.0820 O.3       1 TMP16      -0.3040
     32 H13        14.0350   23.9600   38.9830 H         1 TMP16       0.1140
     33 H14        11.5900   24.2350   38.9190 H         1 TMP16       0.1190
     34 H15        11.1950   20.2890   37.3280 H         1 TMP16       0.1400
     35 H16        13.6420   20.0250   37.3870 H         1 TMP16       0.1100
     36 C20         9.2560   22.3180   36.8060 C.3       1 TMP16       0.0300
     37 C21         8.0010   23.1910   36.7790 C.3       1 TMP16      -0.1150
     38 C22        10.2250   22.7830   35.7160 C.3       1 TMP16      -0.1710
     39 C23         8.8740   20.8810   36.5580 C.2       1 TMP16       0.4820
     40 O24         7.7800   20.4730   36.9070 O.co2     1 TMP16      -0.6700
     41 O25         9.6600   20.1280   36.0080 O.co2     1 TMP16      -0.6860
     42 H17         7.5190   23.1060   35.8050 H         1 TMP16       0.0500
     43 H18         7.3110   22.8590   37.5550 H         1 TMP16       0.0780
     44 H19         8.2760   24.2300   36.9590 H         1 TMP16       0.0570
     45 H20         9.7430   22.6980   34.7420 H         1 TMP16       0.0670
     46 H21        10.5010   23.8220   35.8950 H         1 TMP16       0.0720
     47 H22        11.1190   22.1610   35.7340 H         1 TMP16       0.0510
@<TRIPOS>BOND
     1   38   45 1
     2   38   47 1
     3   38   46 1
     4   36   38 1
     5   37   42 1
     6   39   41 1
     7   36   39 1
     8   39   40 2
     9   36   37 1
    10   37   44 1
    11   37   43 1
    12   31   36 1
    13   29   34 1
    14   30   35 1
    15   21   25 1
    16   29   30 ar
    17   28   29 ar
    18   23   30 ar
    19   28   31 1
    20   21   24 1
    21   27   28 ar
    22   21   23 1
    23   23   26 ar
    24   19   21 1
    25   26   27 ar
    26   27   33 1
    27   26   32 1
    28    8   22 1
    29    8   19 am
    30   19   20 2
    31    6    8 1
    32    5   14 1
    33    5    6 ar
    34    6    7 ar
    35    4    5 ar
    36    9   16 1
    37    7   15 1
    38    2    7 ar
    39    4    9 1
    40    3    4 ar
    41    9   18 1
    42    9   17 1
    43    2    3 ar
    44    1    2 1
    45    3   13 1
    46    1   12 1
    47    1   11 1
    48    1   10 1
@<TRIPOS>MOLECULE
header  -33.735
   47    48     0     0     0
SMALL
USER_CHARGES

@<TRIPOS>ATOM
      1 C1         19.7630   15.2380   40.7080 C.3       1 TMP20      -0.1120
      2 C2         18.9930   16.5040   40.9780 C.ar      1 TMP20      -0.0660
      3 C3         18.5760   16.8000   42.2640 C.ar      1 TMP20      -0.1420
      4 C4         17.8700   17.9620   42.5150 C.ar      1 TMP20      -0.0630
      5 C5         17.5790   18.8320   41.4820 C.ar      1 TMP20      -0.1290
      6 C6         17.9960   18.5390   40.1900 C.ar      1 TMP20       0.1610
      7 C7         18.7100   17.3730   39.9420 C.ar      1 TMP20      -0.1580
      8 N8         17.7020   19.4180   39.1420 N.am      1 TMP20      -0.6820
      9 C9         17.4170   18.2790   43.9170 C.3       1 TMP20      -0.1140
     10 H1         19.8890   14.6850   41.6390 H         1 TMP20       0.0700
     11 H2         19.2140   14.6250   39.9930 H         1 TMP20       0.0660
     12 H3         20.7410   15.4870   40.2990 H         1 TMP20       0.0650
     13 H4         18.8020   16.1210   43.0720 H         1 TMP20       0.1200
     14 H5         17.0270   19.7390   41.6790 H         1 TMP20       0.1360
     15 H6         19.0390   17.1450   38.9400 H         1 TMP20       0.1230
     16 H7         16.8800   19.2270   43.9190 H         1 TMP20       0.0720
     17 H8         16.7590   17.4880   44.2730 H         1 TMP20       0.0670
     18 H9         18.2850   18.3510   44.5710 H         1 TMP20       0.0650
     19 C10        16.5860   20.1720   39.1880 C.2       1 TMP20       0.5110
     20 O11        15.8360   20.0880   40.1380 O.2       1 TMP20      -0.5000
     21 C12        16.2690   21.1190   38.0590 C.3       1 TMP20      -0.0850
     22 H10        18.3020   19.4850   38.3820 H         1 TMP20       0.4100
     23 C13        14.9450   20.7450   37.4460 C.ar      1 TMP20      -0.1310
     24 H11        16.2160   22.1380   38.4430 H         1 TMP20       0.1000
     25 H12        17.0510   21.0560   37.3020 H         1 TMP20       0.1000
     26 C14        13.7760   21.3010   37.9330 C.ar      1 TMP20      -0.0790
     27 C15        12.5600   20.9590   37.3730 C.ar      1 TMP20      -0.1710
     28 C16        12.5120   20.0560   36.3210 C.ar      1 TMP20       0.1720
     29 C17        13.6860   19.4990   35.8330 C.ar      1 TMP20      -0.1520
     30 C18        14.8990   19.8490   36.3930 C.ar      1 TMP20      -0.0790
     31 O19        11.3180   19.7180   35.7680 O.3       1 TMP20      -0.3040
     32 H13        13.8140   22.0030   38.7530 H         1 TMP20       0.1140
     33 H14        11.6490   21.3940   37.7540 H         1 TMP20       0.1190
     34 H15        13.6510   18.7960   35.0140 H         1 TMP20       0.1400
     35 H16        15.8140   19.4190   36.0110 H         1 TMP20       0.1100
     36 C20        10.3540   19.1110   36.6300 C.3       1 TMP20       0.0300
     37 C21         9.4670   18.1650   35.8170 C.3       1 TMP20      -0.1150
     38 C22        11.0730   18.3220   37.7260 C.3       1 TMP20      -0.1710
     39 C23         9.5000   20.1810   37.2600 C.2       1 TMP20       0.4820
     40 O24         8.4760   20.5480   36.7090 O.co2     1 TMP20      -0.6700
     41 O25         9.8330   20.6810   38.3210 O.co2     1 TMP20      -0.6860
     42 H17         8.7320   17.7020   36.4750 H         1 TMP20       0.0500
     43 H18         8.9550   18.7270   35.0370 H         1 TMP20       0.0780
     44 H19        10.0860   17.3910   35.3610 H         1 TMP20       0.0570
     45 H20        10.3370   17.8590   38.3830 H         1 TMP20       0.0670
     46 H21        11.6900   17.5490   37.2700 H         1 TMP20       0.0720
     47 H22        11.7040   18.9970   38.3050 H         1 TMP20       0.0510
@<TRIPOS>BOND
     1   29   34 1
     2   37   43 1
     3   37   44 1
     4   28   31 1
     5   31   36 1
     6   37   42 1
     7   36   37 1
     8   28   29 ar
     9   29   30 ar
    10   30   35 1
    11   27   28 ar
    12   23   30 ar
    13   36   39 1
    14   36   38 1
    15   39   40 1
    16   39   41 2
    17   38   46 1
    18   21   25 1
    19   27   33 1
    20   26   27 ar
    21   23   26 ar
    22   21   23 1
    23   38   47 1
    24   38   45 1
    25   26   32 1
    26   21   24 1
    27   19   21 1
    28    8   22 1
    29    7   15 1
    30    8   19 am
    31    6    8 1
    32   19   20 2
    33    6    7 ar
    34    2    7 ar
    35    1   11 1
    36    5    6 ar
    37    1   12 1
    38    1    2 1
    39    1   10 1
    40    2    3 ar
    41    5   14 1
    42    4    5 ar
    43    3    4 ar
    44    3   13 1
    45    4    9 1
    46    9   16 1
    47    9   17 1
    48    9   18 1
@<TRIPOS>MOLECULE
header  -30.494
   47    48     0     0     0
SMALL
USER_CHARGES

@<TRIPOS>ATOM
      1 C1         19.6780   14.2080   39.3280 C.3       1 TMP21      -0.1120
      2 C2         19.0360   15.5590   39.5110 C.ar      1 TMP21      -0.0660
      3 C3         18.9580   16.4370   38.4450 C.ar      1 TMP21      -0.1420
      4 C4         18.3690   17.6770   38.6090 C.ar      1 TMP21      -0.0630
      5 C5         17.8540   18.0420   39.8380 C.ar      1 TMP21      -0.1290
      6 C6         17.9290   17.1620   40.9100 C.ar      1 TMP21       0.1610
      7 C7         18.5170   15.9150   40.7400 C.ar      1 TMP21      -0.1580
      8 N8         17.4100   17.5290   42.1560 N.am      1 TMP21      -0.6820
      9 C9         18.2870   18.6320   37.4450 C.3       1 TMP21      -0.1140
     10 H1         20.0250   14.1080   38.2990 H         1 TMP21       0.0700
     11 H2         20.5250   14.1140   40.0080 H         1 TMP21       0.0660
     12 H3         18.9500   13.4270   39.5440 H         1 TMP21       0.0650
     13 H4         19.3600   16.1540   37.4840 H         1 TMP21       0.1200
     14 H5         17.3940   19.0100   39.9650 H         1 TMP21       0.1360
     15 H6         18.5740   15.2280   41.5710 H         1 TMP21       0.1230
     16 H7         17.7940   19.5500   37.7630 H         1 TMP21       0.0720
     17 H8         19.2920   18.8620   37.0940 H         1 TMP21       0.0670
     18 H9         17.7170   18.1730   36.6390 H         1 TMP21       0.0650
     19 C10        17.3950   18.8260   42.5250 C.2       1 TMP21       0.5110
     20 O11        17.8330   19.6740   41.7760 O.2       1 TMP21      -0.5000
     21 C12        16.8360   19.2210   43.8680 C.3       1 TMP21      -0.0850
     22 H10        17.0590   16.8500   42.7540 H         1 TMP21       0.4100
     23 C13        15.6780   20.1650   43.6710 C.ar      1 TMP21      -0.1310
     24 H11        16.4930   18.3300   44.3950 H         1 TMP21       0.1000
     25 H12        17.6120   19.7140   44.4530 H         1 TMP21       0.1000
     26 C14        14.3950   19.6660   43.5400 C.ar      1 TMP21      -0.0790
     27 C15        13.3320   20.5290   43.3600 C.ar      1 TMP21      -0.1710
     28 C16        13.5530   21.8980   43.3090 C.ar      1 TMP21       0.1720
     29 C17        14.8410   22.3960   43.4400 C.ar      1 TMP21      -0.1520
     30 C18        15.9000   21.5290   43.6250 C.ar      1 TMP21      -0.0790
     31 O19        12.5090   22.7490   43.1300 O.3       1 TMP21      -0.3040
     32 H13        14.2240   18.6000   43.5810 H         1 TMP21       0.1140
     33 H14        12.3300   20.1390   43.2570 H         1 TMP21       0.1190
     34 H15        15.0140   23.4620   43.4000 H         1 TMP21       0.1400
     35 H16        16.9020   21.9170   43.7320 H         1 TMP21       0.1100
     36 C20        12.1660   23.0830   41.7830 C.3       1 TMP21       0.0300
     37 C21        10.9760   24.0450   41.7830 C.3       1 TMP21      -0.1150
     38 C22        13.3630   23.7530   41.1050 C.3       1 TMP21      -0.1710
     39 C23        11.7990   21.8300   41.0330 C.2       1 TMP21       0.4820
     40 O24        10.6420   21.4460   41.0160 O.co2     1 TMP21      -0.6700
     41 O25        12.6590   21.1990   40.4420 O.co2     1 TMP21      -0.6860
     42 H17        10.7150   24.3000   40.7560 H         1 TMP21       0.0500
     43 H18        10.1240   23.5680   42.2670 H         1 TMP21       0.0780
     44 H19        11.2410   24.9520   42.3270 H         1 TMP21       0.0570
     45 H20        13.1020   24.0080   40.0780 H         1 TMP21       0.0670
     46 H21        13.6290   24.6590   41.6480 H         1 TMP21       0.0720
     47 H22        14.2110   23.0680   41.1050 H         1 TMP21       0.0510
@<TRIPOS>BOND
     1    9   18 1
     2    9   17 1
     3    9   16 1
     4    4    9 1
     5    3   13 1
     6    1   10 1
     7    3    4 ar
     8    2    3 ar
     9    4    5 ar
    10    1    2 1
    11    1   12 1
    12    1   11 1
    13    2    7 ar
    14    5   14 1
    15    5    6 ar
    16   38   45 1
    17   39   41 1
    18    6    7 ar
    19    7   15 1
    20   37   42 1
    21    6    8 1
    22   39   40 2
    23   36   39 1
    24   38   47 1
    25   38   46 1
    26   36   38 1
    27   19   20 2
    28   36   37 1
    29   31   36 1
    30   37   43 1
    31   37   44 1
    32    8   19 am
    33    8   22 1
    34   19   21 1
    35   28   31 1
    36   27   33 1
    37   27   28 ar
    38   28   29 ar
    39   26   27 ar
    40   29   34 1
    41   29   30 ar
    42   26   32 1
    43   23   26 ar
    44   23   30 ar
    45   30   35 1
    46   21   23 1
    47   21   24 1
    48   21   25 1
@<TRIPOS>MOLECULE
header  -27.232
   47    48     0     0     0
SMALL
USER_CHARGES

@<TRIPOS>ATOM
      1 C1         20.0630   13.0540   41.0770 C.3       1 TMP28      -0.1120
      2 C2         19.5520   14.4570   40.8730 C.ar      1 TMP28      -0.0660
      3 C3         19.5700   15.0230   39.6110 C.ar      1 TMP28      -0.1420
      4 C4         19.1010   16.3100   39.4210 C.ar      1 TMP28      -0.0630
      5 C5         18.6110   17.0340   40.4910 C.ar      1 TMP28      -0.1290
      6 C6         18.5910   16.4680   41.7590 C.ar      1 TMP28       0.1610
      7 C7         19.0580   15.1730   41.9460 C.ar      1 TMP28      -0.1580
      8 N8         18.0960   17.1980   42.8450 N.am      1 TMP28      -0.6820
      9 C9         19.1240   16.9240   38.0440 C.3       1 TMP28      -0.1140
     10 H1         20.4090   12.6530   40.1240 H         1 TMP28       0.0700
     11 H2         20.8900   13.0690   41.7860 H         1 TMP28       0.0660
     12 H3         19.2610   12.4280   41.4660 H         1 TMP28       0.0650
     13 H4         19.9520   14.4600   38.7740 H         1 TMP28       0.1200
     14 H5         18.2450   18.0380   40.3410 H         1 TMP28       0.1360
     15 H6         19.0400   14.7300   42.9300 H         1 TMP28       0.1230
     16 H7         18.7180   17.9340   38.0900 H         1 TMP28       0.0720
     17 H8         20.1500   16.9600   37.6810 H         1 TMP28       0.0670
     18 H9         18.5200   16.3200   37.3680 H         1 TMP28       0.0650
     19 C10        18.2030   18.5420   42.8570 C.2       1 TMP28       0.5110
     20 O11        18.7280   19.1180   41.9270 O.2       1 TMP28      -0.5000
     21 C12        17.6710   19.3300   44.0270 C.3       1 TMP28      -0.0850
     22 H10        17.6760   16.7380   43.5880 H         1 TMP28       0.4100
     23 C13        16.6100   20.2880   43.5470 C.ar      1 TMP28      -0.1310
     24 H11        17.2380   18.6460   44.7580 H         1 TMP28       0.1000
     25 H12        18.4840   19.8890   44.4890 H         1 TMP28       0.1000
     26 C14        15.2870   19.8900   43.5080 C.ar      1 TMP28      -0.0790
     27 C15        14.3140   20.7650   43.0690 C.ar      1 TMP28      -0.1710
     28 C16        14.6660   22.0460   42.6650 C.ar      1 TMP28       0.1720
     29 C17        15.9950   22.4430   42.7060 C.ar      1 TMP28      -0.1520
     30 C18        16.9630   21.5640   43.1510 C.ar      1 TMP28      -0.0790
     31 O19        13.7110   22.9090   42.2320 O.3       1 TMP28      -0.3040
     32 H13        15.0140   18.8930   43.8220 H         1 TMP28       0.1140
     33 H14        13.2810   20.4540   43.0370 H         1 TMP28       0.1190
     34 H15        16.2700   23.4390   42.3930 H         1 TMP28       0.1400
     35 H16        17.9970   21.8750   43.1880 H         1 TMP28       0.1100
     36 C20        13.4150   22.9020   40.8330 C.3       1 TMP28       0.0300
     37 C21        12.3230   23.9330   40.5370 C.3       1 TMP28      -0.1150
     38 C22        14.6780   23.2560   40.0450 C.3       1 TMP28      -0.1710
     39 C23        12.9370   21.5320   40.4280 C.2       1 TMP28       0.4820
     40 O24        11.7490   21.2640   40.4720 O.co2     1 TMP28      -0.6700
     41 O25        13.7390   20.6920   40.0560 O.co2     1 TMP28      -0.6860
     42 H17        12.0990   23.9270   39.4700 H         1 TMP28       0.0500
     43 H18        11.4250   23.6800   41.0990 H         1 TMP28       0.0780
     44 H19        12.6700   24.9230   40.8310 H         1 TMP28       0.0570
     45 H20        14.4540   23.2510   38.9780 H         1 TMP28       0.0670
     46 H21        15.0240   24.2470   40.3380 H         1 TMP28       0.0720
     47 H22        15.4560   22.5220   40.2560 H         1 TMP28       0.0510
@<TRIPOS>BOND
     1    9   18 1
     2    9   17 1
     3    9   16 1
     4    4    9 1
     5    3   13 1
     6   38   45 1
     7    3    4 ar
     8    4    5 ar
     9   37   42 1
    10    2    3 ar
    11   38   47 1
    12   38   46 1
    13   36   38 1
    14   39   41 1
    15    1   10 1
    16    5   14 1
    17   39   40 2
    18   36   39 1
    19    5    6 ar
    20   37   44 1
    21   36   37 1
    22   37   43 1
    23   31   36 1
    24    1    2 1
    25    2    7 ar
    26    1   12 1
    27    1   11 1
    28    6    7 ar
    29    6    8 1
    30   19   20 2
    31    7   15 1
    32   28   31 1
    33   29   34 1
    34   28   29 ar
    35   27   28 ar
    36   29   30 ar
    37    8   19 am
    38    8   22 1
    39   19   21 1
    40   27   33 1
    41   26   27 ar
    42   30   35 1
    43   23   30 ar
    44   23   26 ar
    45   26   32 1
    46   21   23 1
    47   21   25 1
    48   21   24 1
@<TRIPOS>MOLECULE
header  -12.707
   47    48     0     0     0
SMALL
USER_CHARGES

@<TRIPOS>ATOM
      1 C1         16.9240   17.0750   43.3730 C.3       1 TMP29      -0.1120
      2 C2         17.6110   16.7190   42.0800 C.ar      1 TMP29      -0.0660
      3 C3         17.7700   17.6790   41.0960 C.ar      1 TMP29      -0.1420
      4 C4         18.3990   17.3560   39.9070 C.ar      1 TMP29      -0.0630
      5 C5         18.8730   16.0750   39.7000 C.ar      1 TMP29      -0.1290
      6 C6         18.7150   15.1100   40.6870 C.ar      1 TMP29       0.1610
      7 C7         18.0870   15.4380   41.8810 C.ar      1 TMP29      -0.1580
      8 N8         19.1930   13.8120   40.4800 N.am      1 TMP29      -0.6820
      9 C9         18.5700   18.4040   38.8370 C.3       1 TMP29      -0.1140
     10 H1         16.6200   18.1210   43.3470 H         1 TMP29       0.0700
     11 H2         16.0450   16.4440   43.5030 H         1 TMP29       0.0660
     12 H3         17.6110   16.9170   44.2040 H         1 TMP29       0.0650
     13 H4         17.4010   18.6800   41.2550 H         1 TMP29       0.1200
     14 H5         19.3640   15.8240   38.7720 H         1 TMP29       0.1360
     15 H6         17.9660   14.6910   42.6510 H         1 TMP29       0.1230
     16 H7         19.0840   17.9680   37.9810 H         1 TMP29       0.0720
     17 H8         17.5910   18.7680   38.5270 H         1 TMP29       0.0670
     18 H9         19.1570   19.2330   39.2310 H         1 TMP29       0.0650
     19 C10        18.7250   13.0770   39.4510 C.2       1 TMP29       0.5110
     20 O11        17.8890   13.5430   38.7040 O.2       1 TMP29      -0.5000
     21 C12        19.2390   11.6780   39.2270 C.3       1 TMP29      -0.0850
     22 H10        19.8610   13.4390   41.0760 H         1 TMP29       0.4100
     23 C13        18.0930   10.7030   39.3100 C.ar      1 TMP29      -0.1310
     24 H11        19.7000   11.6140   38.2420 H         1 TMP29       0.1000
     25 H12        19.9780   11.4370   39.9920 H         1 TMP29       0.1000
     26 C14        17.0070   10.9810   40.1190 C.ar      1 TMP29      -0.0790
     27 C15        15.9560   10.0880   40.1970 C.ar      1 TMP29      -0.1710
     28 C16        15.9910    8.9120   39.4620 C.ar      1 TMP29       0.1720
     29 C17        17.0810    8.6360   38.6490 C.ar      1 TMP29      -0.1520
     30 C18        18.1260    9.5340   38.5710 C.ar      1 TMP29      -0.0790
     31 O19        14.9580    8.0310   39.5370 O.3       1 TMP29      -0.3040
     32 H13        16.9810   11.8950   40.6920 H         1 TMP29       0.1140
     33 H14        15.1080   10.3040   40.8290 H         1 TMP29       0.1190
     34 H15        17.1100    7.7210   38.0760 H         1 TMP29       0.1400
     35 H16        18.9740    9.3230   37.9360 H         1 TMP29       0.1100
     36 C20        13.8910    8.2020   38.6010 C.3       1 TMP29       0.0300
     37 C21        13.7620    9.6830   38.2380 C.3       1 TMP29      -0.1150
     38 C22        14.1860    7.3910   37.3380 C.3       1 TMP29      -0.1710
     39 C23        12.6010    7.7220   39.2160 C.2       1 TMP29       0.4820
     40 O24        12.5970    7.2750   40.3520 O.co2     1 TMP29      -0.6700
     41 O25        11.5630    7.7810   38.5800 O.co2     1 TMP29      -0.6860
     42 H17        12.9480    9.8120   37.5250 H         1 TMP29       0.0500
     43 H18        13.5520   10.2610   39.1390 H         1 TMP29       0.0780
     44 H19        14.6950   10.0300   37.7930 H         1 TMP29       0.0570
     45 H20        13.3710    7.5220   36.6250 H         1 TMP29       0.0670
     46 H21        15.1170    7.7380   36.8920 H         1 TMP29       0.0720
     47 H22        14.2760    6.3360   37.5960 H         1 TMP29       0.0510
@<TRIPOS>BOND
     1   38   45 1
     2   38   46 1
     3   38   47 1
     4   36   38 1
     5   37   42 1
     6   37   44 1
     7   30   35 1
     8    9   16 1
     9   29   34 1
    10   36   37 1
    11   37   43 1
    12   21   24 1
    13    9   17 1
    14   29   30 ar
    15   23   30 ar
    16   39   41 2
    17   36   39 1
    18   31   36 1
    19   28   29 ar
    20   19   20 2
    21    5   14 1
    22    9   18 1
    23    4    9 1
    24   39   40 1
    25   21   23 1
    26   19   21 1
    27   21   25 1
    28   23   26 ar
    29    8   19 am
    30   28   31 1
    31   27   28 ar
    32    4    5 ar
    33    5    6 ar
    34    3    4 ar
    35   26   27 ar
    36   26   32 1
    37   27   33 1
    38    6    8 1
    39    8   22 1
    40    6    7 ar
    41    3   13 1
    42    2    3 ar
    43    2    7 ar
    44    7   15 1
    45    1    2 1
    46    1   10 1
    47    1   11 1
    48    1   12 1
@<TRIPOS>MOLECULE
header  -12.929
   47    48     0     0     0
SMALL
USER_CHARGES

@<TRIPOS>ATOM
      1 C1         17.7930   15.5020   42.8630 C.3       1 TMP32      -0.1120
      2 C2         17.4740   16.9490   42.5920 C.ar      1 TMP32      -0.0660
      3 C3         17.0830   17.7770   43.6290 C.ar      1 TMP32      -0.1420
      4 C4         16.7890   19.1060   43.3840 C.ar      1 TMP32      -0.0630
      5 C5         16.8880   19.6120   42.1020 C.ar      1 TMP32      -0.1290
      6 C6         17.2800   18.7830   41.0590 C.ar      1 TMP32       0.1610
      7 C7         17.5790   17.4500   41.3090 C.ar      1 TMP32      -0.1580
      8 N8         17.3790   19.2920   39.7590 N.am      1 TMP32      -0.6820
      9 C9         16.3630   20.0040   44.5170 C.3       1 TMP32      -0.1140
     10 H1         17.6540   15.2930   43.9240 H         1 TMP32       0.0700
     11 H2         17.1270   14.8680   42.2780 H         1 TMP32       0.0660
     12 H3         18.8260   15.3000   42.5850 H         1 TMP32       0.0650
     13 H4         17.0060   17.3850   44.6320 H         1 TMP32       0.1200
     14 H5         16.6580   20.6490   41.9120 H         1 TMP32       0.1360
     15 H6         17.8880   16.8050   40.5010 H         1 TMP32       0.1230
     16 H7         16.1760   21.0080   44.1340 H         1 TMP32       0.0720
     17 H8         15.4520   19.6120   44.9680 H         1 TMP32       0.0670
     18 H9         17.1520   20.0420   45.2670 H         1 TMP32       0.0650
     19 C10        16.5800   20.3050   39.3700 C.2       1 TMP32       0.5110
     20 O11        15.7750   20.7760   40.1460 O.2       1 TMP32      -0.5000
     21 C12        16.6870   20.8530   37.9690 C.3       1 TMP32      -0.0850
     22 H10        18.0230   18.9160   39.1390 H         1 TMP32       0.4100
     23 C13        15.3650   20.6920   37.2650 C.ar      1 TMP32      -0.1310
     24 H11        16.9490   21.9100   38.0120 H         1 TMP32       0.1000
     25 H12        17.4580   20.3090   37.4240 H         1 TMP32       0.1000
     26 C14        14.4170   21.6960   37.3370 C.ar      1 TMP32      -0.0790
     27 C15        13.2030   21.5510   36.6930 C.ar      1 TMP32      -0.1710
     28 C16        12.9370   20.3960   35.9720 C.ar      1 TMP32       0.1720
     29 C17        13.8900   19.3900   35.8990 C.ar      1 TMP32      -0.1520
     30 C18        15.1030   19.5430   36.5410 C.ar      1 TMP32      -0.0790
     31 O19        11.7440   20.2510   35.3370 O.3       1 TMP32      -0.3040
     32 H13        14.6240   22.5940   37.9000 H         1 TMP32       0.1140
     33 H14        12.4640   22.3350   36.7500 H         1 TMP32       0.1190
     34 H15        13.6840   18.4900   35.3380 H         1 TMP32       0.1400
     35 H16        15.8470   18.7620   36.4820 H         1 TMP32       0.1100
     36 C20        10.5690   20.2860   36.1480 C.3       1 TMP32       0.0300
     37 C21         9.4820   19.4180   35.5100 C.3       1 TMP32      -0.1150
     38 C22        10.8960   19.7510   37.5440 C.3       1 TMP32      -0.1710
     39 C23        10.0780   21.7060   36.2580 C.2       1 TMP32       0.4820
     40 O24         9.2810   22.1410   35.4430 O.co2     1 TMP32      -0.6700
     41 O25        10.4760   22.4220   37.1610 O.co2     1 TMP32      -0.6860
     42 H17         8.5850   19.4460   36.1300 H         1 TMP32       0.0500
     43 H18         9.2490   19.8000   34.5170 H         1 TMP32       0.0780
     44 H19         9.8380   18.3910   35.4310 H         1 TMP32       0.0570
     45 H20         9.9990   19.7780   38.1620 H         1 TMP32       0.0670
     46 H21        11.2510   18.7240   37.4640 H         1 TMP32       0.0720
     47 H22        11.6700   20.3700   37.9980 H         1 TMP32       0.0510
@<TRIPOS>BOND
     1   37   43 1
     2   28   31 1
     3   31   36 1
     4   29   34 1
     5   37   44 1
     6   39   40 1
     7   37   42 1
     8   36   37 1
     9   28   29 ar
    10   29   30 ar
    11   27   28 ar
    12   36   39 1
    13   36   38 1
    14   39   41 2
    15   30   35 1
    16   23   30 ar
    17   27   33 1
    18   26   27 ar
    19   23   26 ar
    20   21   23 1
    21   26   32 1
    22   21   25 1
    23   38   46 1
    24   38   47 1
    25   38   45 1
    26   21   24 1
    27   19   21 1
    28    8   22 1
    29    8   19 am
    30   19   20 2
    31    6    8 1
    32    7   15 1
    33    6    7 ar
    34    5    6 ar
    35    2    7 ar
    36    5   14 1
    37    4    5 ar
    38    1   11 1
    39    1   12 1
    40    1    2 1
    41    2    3 ar
    42    1   10 1
    43    3    4 ar
    44    4    9 1
    45    3   13 1
    46    9   16 1
    47    9   17 1
    48    9   18 1
@<TRIPOS>MOLECULE
header  -31.879
   47    48     0     0     0
SMALL
USER_CHARGES

@<TRIPOS>ATOM
      1 C1         19.1070   17.7040   38.1690 C.3       1 TMP44      -0.1120
      2 C2         19.0920   16.8970   39.4420 C.ar      1 TMP44      -0.0660
      3 C3         19.7140   15.6620   39.4840 C.ar      1 TMP44      -0.1420
      4 C4         19.7030   14.9190   40.6510 C.ar      1 TMP44      -0.0630
      5 C5         19.0720   15.4090   41.7780 C.ar      1 TMP44      -0.1290
      6 C6         18.4480   16.6490   41.7380 C.ar      1 TMP44       0.1610
      7 C7         18.4650   17.3950   40.5670 C.ar      1 TMP44      -0.1580
      8 N8         17.8070   17.1480   42.8780 N.am      1 TMP44      -0.6820
      9 C9         20.3810   13.5730   40.6920 C.3       1 TMP44      -0.1140
     10 H1         19.6440   17.1530   37.3970 H         1 TMP44       0.0700
     11 H2         18.0830   17.8830   37.8410 H         1 TMP44       0.0660
     12 H3         19.6040   18.6560   38.3480 H         1 TMP44       0.0650
     13 H4         20.2080   15.2770   38.6050 H         1 TMP44       0.1200
     14 H5         19.0640   14.8290   42.6880 H         1 TMP44       0.1360
     15 H6         17.9830   18.3610   40.5350 H         1 TMP44       0.1230
     16 H7         20.2680   13.1410   41.6860 H         1 TMP44       0.0720
     17 H8         19.9240   12.9140   39.9550 H         1 TMP44       0.0670
     18 H9         21.4400   13.6930   40.4650 H         1 TMP44       0.0650
     19 C10        16.7440   17.9660   42.7500 C.2       1 TMP44       0.5110
     20 O11        16.3420   18.2710   41.6460 O.2       1 TMP44      -0.5000
     21 C12        16.0540   18.5030   43.9770 C.3       1 TMP44      -0.0850
     22 H10        18.1280   16.9040   43.7600 H         1 TMP44       0.4100
     23 C13        16.1150   20.0090   43.9700 C.ar      1 TMP44      -0.1310
     24 H11        15.0110   18.1820   43.9770 H         1 TMP44       0.1000
     25 H12        16.5510   18.1230   44.8690 H         1 TMP44       0.1000
     26 C14        15.1070   20.7380   43.3660 C.ar      1 TMP44      -0.0790
     27 C15        15.1620   22.1180   43.3580 C.ar      1 TMP44      -0.1710
     28 C16        16.2290   22.7730   43.9560 C.ar      1 TMP44       0.1720
     29 C17        17.2390   22.0390   44.5610 C.ar      1 TMP44      -0.1520
     30 C18        17.1770   20.6580   44.5720 C.ar      1 TMP44      -0.0790
     31 O19        16.2860   24.1310   43.9490 O.3       1 TMP44      -0.3040
     32 H13        14.2770   20.2280   42.9010 H         1 TMP44       0.1140
     33 H14        14.3750   22.6870   42.8860 H         1 TMP44       0.1190
     34 H15        18.0700   22.5470   45.0270 H         1 TMP44       0.1400
     35 H16        17.9610   20.0870   45.0460 H         1 TMP44       0.1100
     36 C20        16.9490   24.7460   42.8440 C.3       1 TMP44       0.0300
     37 C21        15.9680   25.6580   42.1030 C.3       1 TMP44      -0.1150
     38 C22        18.1290   25.5760   43.3540 C.3       1 TMP44      -0.1710
     39 C23        17.4540   23.6820   41.9030 C.2       1 TMP44       0.4820
     40 O24        16.7440   23.2870   40.9940 O.co2     1 TMP44      -0.6700
     41 O25        18.5700   23.2170   42.0530 O.co2     1 TMP44      -0.6860
     42 H17        16.4750   26.1280   41.2600 H         1 TMP44       0.0500
     43 H18        15.1280   25.0680   41.7380 H         1 TMP44       0.0780
     44 H19        15.6040   26.4280   42.7830 H         1 TMP44       0.0570
     45 H20        18.6350   26.0450   42.5120 H         1 TMP44       0.0670
     46 H21        17.7650   26.3460   44.0350 H         1 TMP44       0.0720
     47 H22        18.8280   24.9260   43.8830 H         1 TMP44       0.0510
@<TRIPOS>BOND
     1    1   10 1
     2    1   11 1
     3    1   12 1
     4    1    2 1
     5    3   13 1
     6    2    3 ar
     7    2    7 ar
     8    3    4 ar
     9    9   17 1
    10    9   18 1
    11    7   15 1
    12    6    7 ar
    13    4    9 1
    14    4    5 ar
    15    9   16 1
    16   39   40 1
    17   37   42 1
    18   19   20 2
    19    5    6 ar
    20    6    8 1
    21   37   43 1
    22    5   14 1
    23   39   41 2
    24   36   39 1
    25   37   44 1
    26   36   37 1
    27   38   45 1
    28    8   19 am
    29   19   21 1
    30   36   38 1
    31   31   36 1
    32    8   22 1
    33   27   33 1
    34   26   32 1
    35   38   47 1
    36   38   46 1
    37   26   27 ar
    38   27   28 ar
    39   23   26 ar
    40   28   31 1
    41   28   29 ar
    42   21   23 1
    43   23   30 ar
    44   21   24 1
    45   21   25 1
    46   29   30 ar
    47   29   34 1
    48   30   35 1
@<TRIPOS>MOLECULE
header   -1.932
   47    48     0     0     0
SMALL
USER_CHARGES

@<TRIPOS>ATOM
      1 C1         19.9050   13.3910   40.9500 C.3       1 TMP59      -0.1120
      2 C2         19.3790   14.7820   41.1960 C.ar      1 TMP59      -0.0660
      3 C3         18.7480   15.0810   42.3900 C.ar      1 TMP59      -0.1420
      4 C4         18.2650   16.3560   42.6190 C.ar      1 TMP59      -0.0630
      5 C5         18.4110   17.3360   41.6560 C.ar      1 TMP59      -0.1290
      6 C6         19.0440   17.0380   40.4560 C.ar      1 TMP59       0.1610
      7 C7         19.5330   15.7580   40.2310 C.ar      1 TMP59      -0.1580
      8 N8         19.1930   18.0280   39.4780 N.am      1 TMP59      -0.6820
      9 C9         17.5770   16.6780   43.9220 C.3       1 TMP59      -0.1140
     10 H1         19.6930   12.7650   41.8160 H         1 TMP59       0.0700
     11 H2         19.4200   12.9700   40.0690 H         1 TMP59       0.0660
     12 H3         20.9810   13.4340   40.7870 H         1 TMP59       0.0650
     13 H4         18.6330   14.3180   43.1440 H         1 TMP59       0.1200
     14 H5         18.0330   18.3310   41.8360 H         1 TMP59       0.1360
     15 H6         20.0290   15.5260   39.3010 H         1 TMP59       0.1230
     16 H7         17.2670   17.7220   43.9200 H         1 TMP59       0.0720
     17 H8         16.7030   16.0390   44.0380 H         1 TMP59       0.0670
     18 H9         18.2660   16.5040   44.7480 H         1 TMP59       0.0650
     19 C10        18.6470   17.8570   38.2570 C.2       1 TMP59       0.5110
     20 O11        18.0270   16.8440   38.0070 O.2       1 TMP59      -0.5000
     21 C12        18.8070   18.9220   37.2040 C.3       1 TMP59      -0.0850
     22 H10        19.6880   18.8380   39.6780 H         1 TMP59       0.4100
     23 C13        17.4480   19.4230   36.7840 C.ar      1 TMP59      -0.1310
     24 H11        19.3890   19.7500   37.6100 H         1 TMP59       0.1000
     25 H12        19.3240   18.5040   36.3400 H         1 TMP59       0.1000
     26 C14        16.8710   20.4890   37.4470 C.ar      1 TMP59      -0.0790
     27 C15        15.6260   20.9490   37.0650 C.ar      1 TMP59      -0.1710
     28 C16        14.9550   20.3390   36.0140 C.ar      1 TMP59       0.1720
     29 C17        15.5370   19.2680   35.3510 C.ar      1 TMP59      -0.1520
     30 C18        16.7850   18.8170   35.7340 C.ar      1 TMP59      -0.0790
     31 O19        13.7300   20.7890   35.6360 O.3       1 TMP59      -0.3040
     32 H13        17.3930   20.9630   38.2650 H         1 TMP59       0.1140
     33 H14        15.1740   21.7820   37.5830 H         1 TMP59       0.1190
     34 H15        15.0170   18.7930   34.5330 H         1 TMP59       0.1400
     35 H16        17.2410   17.9860   35.2150 H         1 TMP59       0.1100
     36 C20        12.5960   20.1970   36.2740 C.3       1 TMP59       0.0300
     37 C21        12.5840   18.6920   35.9990 C.3       1 TMP59      -0.1150
     38 C22        12.6760   20.4400   37.7830 C.3       1 TMP59      -0.1710
     39 C23        11.3340   20.8170   35.7310 C.2       1 TMP59       0.4820
     40 O24        10.7840   20.3300   34.7580 O.co2     1 TMP59      -0.6700
     41 O25        10.8620   21.8060   36.2660 O.co2     1 TMP59      -0.6860
     42 H17        11.7190   18.2410   36.4860 H         1 TMP59       0.0500
     43 H18        12.5270   18.5200   34.9250 H         1 TMP59       0.0780
     44 H19        13.4970   18.2440   36.3910 H         1 TMP59       0.0570
     45 H20        11.8110   19.9880   38.2690 H         1 TMP59       0.0670
     46 H21        13.5880   19.9910   38.1750 H         1 TMP59       0.0720
     47 H22        12.6840   21.5120   37.9790 H         1 TMP59       0.0510
@<TRIPOS>BOND
     1   29   34 1
     2   39   40 2
     3   37   43 1
     4   30   35 1
     5   29   30 ar
     6   28   29 ar
     7   28   31 1
     8   31   36 1
     9   39   41 1
    10   36   39 1
    11   23   30 ar
    12   36   37 1
    13   37   44 1
    14   37   42 1
    15   27   28 ar
    16   36   38 1
    17   21   25 1
    18   21   23 1
    19   23   26 ar
    20   26   27 ar
    21   27   33 1
    22   21   24 1
    23   19   21 1
    24   26   32 1
    25   38   47 1
    26   38   46 1
    27   38   45 1
    28   19   20 2
    29    8   19 am
    30    7   15 1
    31    8   22 1
    32    6    8 1
    33    1   11 1
    34    6    7 ar
    35    2    7 ar
    36    5    6 ar
    37    1   12 1
    38    1    2 1
    39    1   10 1
    40    2    3 ar
    41    5   14 1
    42    4    5 ar
    43    3    4 ar
    44    3   13 1
    45    4    9 1
    46    9   16 1
    47    9   17 1
    48    9   18 1
@<TRIPOS>MOLECULE
header  -23.860
   47    48     0     0     0
SMALL
USER_CHARGES

@<TRIPOS>ATOM
      1 C1         18.5320   18.4220   37.0850 C.3       1 TMP60      -0.1120
      2 C2         17.3660   19.2200   37.6100 C.ar      1 TMP60      -0.0660
      3 C3         17.3960   19.7200   38.8990 C.ar      1 TMP60      -0.1420
      4 C4         16.3280   20.4530   39.3840 C.ar      1 TMP60      -0.0630
      5 C5         15.2290   20.6900   38.5820 C.ar      1 TMP60      -0.1290
      6 C6         15.1960   20.1890   37.2860 C.ar      1 TMP60       0.1610
      7 C7         16.2720   19.4580   36.8010 C.ar      1 TMP60      -0.1580
      8 N8         14.0840   20.4260   36.4710 N.am      1 TMP60      -0.6820
      9 C9         16.3640   20.9950   40.7910 C.3       1 TMP60      -0.1140
     10 H1         19.2940   18.3410   37.8600 H         1 TMP60       0.0700
     11 H2         18.1920   17.4260   36.8030 H         1 TMP60       0.0660
     12 H3         18.9520   18.9240   36.2140 H         1 TMP60       0.0650
     13 H4         18.2540   19.5370   39.5280 H         1 TMP60       0.1200
     14 H5         14.3960   21.2620   38.9610 H         1 TMP60       0.1360
     15 H6         16.2510   19.0710   35.7930 H         1 TMP60       0.1230
     16 H7         15.4430   21.5420   40.9920 H         1 TMP60       0.0720
     17 H8         16.4590   20.1700   41.4950 H         1 TMP60       0.0670
     18 H9         17.2160   21.6660   40.8990 H         1 TMP60       0.0650
     19 C10        12.8630   20.5690   37.0230 C.2       1 TMP60       0.5110
     20 O11        12.7280   20.4920   38.2260 O.2       1 TMP60      -0.5000
     21 C12        11.6640   20.8230   36.1450 C.3       1 TMP60      -0.0850
     22 H10        14.1920   20.4870   35.5090 H         1 TMP60       0.4100
     23 C13        10.6620   19.7140   36.3290 C.ar      1 TMP60      -0.1310
     24 H11        11.2080   21.7740   36.4200 H         1 TMP60       0.1000
     25 H12        11.9790   20.8590   35.1020 H         1 TMP60       0.1000
     26 C14        11.0920   18.4410   36.6550 C.ar      1 TMP60      -0.0790
     27 C15        10.1750   17.4220   36.8240 C.ar      1 TMP60      -0.1710
     28 C16         8.8210   17.6770   36.6660 C.ar      1 TMP60       0.1720
     29 C17         8.3910   18.9530   36.3390 C.ar      1 TMP60      -0.1520
     30 C18         9.3120   19.9710   36.1760 C.ar      1 TMP60      -0.0790
     31 O19         7.9160   16.6750   36.8310 O.3       1 TMP60      -0.3040
     32 H13        12.1480   18.2440   36.7780 H         1 TMP60       0.1140
     33 H14        10.5120   16.4280   37.0790 H         1 TMP60       0.1190
     34 H15         7.3370   19.1550   36.2150 H         1 TMP60       0.1400
     35 H16         8.9780   20.9660   35.9260 H         1 TMP60       0.1100
     36 C20         7.0910   16.3560   35.7100 C.3       1 TMP60       0.0300
     37 C21         7.8500   16.6530   34.4160 C.3       1 TMP60      -0.1150
     38 C22         6.7200   14.8720   35.7550 C.3       1 TMP60      -0.1710
     39 C23         5.8350   17.1890   35.7580 C.2       1 TMP60       0.4820
     40 O24         5.8050   18.2770   35.2110 O.co2     1 TMP60      -0.6700
     41 O25         4.8490   16.7730   36.3440 O.co2     1 TMP60      -0.6860
     42 H17         7.2200   16.4100   33.5600 H         1 TMP60       0.0500
     43 H18         8.1140   17.7100   34.3830 H         1 TMP60       0.0780
     44 H19         8.7580   16.0510   34.3810 H         1 TMP60       0.0570
     45 H20         6.0900   14.6280   34.9000 H         1 TMP60       0.0670
     46 H21         7.6280   14.2700   35.7210 H         1 TMP60       0.0720
     47 H22         6.1790   14.6610   36.6780 H         1 TMP60       0.0510
@<TRIPOS>BOND
     1   37   42 1
     2   37   44 1
     3   37   43 1
     4   36   37 1
     5   38   45 1
     6   21   25 1
     7   39   40 2
     8    8   22 1
     9   36   38 1
    10   36   39 1
    11   31   36 1
    12   38   46 1
    13   38   47 1
    14   39   41 1
    15    7   15 1
    16   30   35 1
    17   21   23 1
    18   21   24 1
    19   19   21 1
    20   23   30 ar
    21   29   30 ar
    22    1   12 1
    23   29   34 1
    24   23   26 ar
    25   28   29 ar
    26    8   19 am
    27    6    8 1
    28   26   32 1
    29   26   27 ar
    30   27   28 ar
    31   28   31 1
    32    6    7 ar
    33    2    7 ar
    34    1   11 1
    35   27   33 1
    36   19   20 2
    37    1    2 1
    38    1   10 1
    39    5    6 ar
    40    2    3 ar
    41    5   14 1
    42    4    5 ar
    43    3    4 ar
    44    3   13 1
    45    4    9 1
    46    9   18 1
    47    9   16 1
    48    9   17 1
@<TRIPOS>MOLECULE
header  -15.897
   47    48     0     0     0
SMALL
USER_CHARGES

@<TRIPOS>ATOM
      1 C1         16.9350   20.0250   37.6720 C.3       1 TMP64      -0.1120
      2 C2         17.1770   19.8840   39.1530 C.ar      1 TMP64      -0.0660
      3 C3         17.8790   18.7950   39.6370 C.ar      1 TMP64      -0.1420
      4 C4         18.1040   18.6620   40.9950 C.ar      1 TMP64      -0.0630
      5 C5         17.6300   19.6180   41.8720 C.ar      1 TMP64      -0.1290
      6 C6         16.9240   20.7130   41.3890 C.ar      1 TMP64       0.1610
      7 C7         16.7050   20.8460   40.0240 C.ar      1 TMP64      -0.1580
      8 N8         16.4410   21.6820   42.2740 N.am      1 TMP64      -0.6820
      9 C9         18.8690   17.4730   41.5190 C.3       1 TMP64      -0.1140
     10 H1         17.3780   19.1780   37.1500 H         1 TMP64       0.0700
     11 H2         15.8620   20.0490   37.4810 H         1 TMP64       0.0660
     12 H3         17.3880   20.9490   37.3160 H         1 TMP64       0.0650
     13 H4         18.2520   18.0470   38.9540 H         1 TMP64       0.1200
     14 H5         17.8050   19.5140   42.9320 H         1 TMP64       0.1360
     15 H6         16.1610   21.6980   39.6450 H         1 TMP64       0.1230
     16 H7         18.9460   17.5410   42.6040 H         1 TMP64       0.0720
     17 H8         18.3460   16.5580   41.2470 H         1 TMP64       0.0670
     18 H9         19.8680   17.4640   41.0830 H         1 TMP64       0.0650
     19 C10        15.3190   22.3670   41.9780 C.2       1 TMP64       0.5110
     20 O11        14.7270   22.1430   40.9430 O.2       1 TMP64      -0.5000
     21 C12        14.7980   23.4100   42.9330 C.3       1 TMP64      -0.0850
     22 H10        16.9140   21.8610   43.1030 H         1 TMP64       0.4100
     23 C13        14.7570   24.7490   42.2390 C.ar      1 TMP64      -0.1310
     24 H11        13.7930   23.1370   43.2560 H         1 TMP64       0.1000
     25 H12        15.4560   23.4700   43.8000 H         1 TMP64       0.1000
     26 C14        15.6670   25.0360   41.2390 C.ar      1 TMP64      -0.0790
     27 C15        15.6310   26.2610   40.6030 C.ar      1 TMP64      -0.1710
     28 C16        14.6800   27.2040   40.9680 C.ar      1 TMP64       0.1720
     29 C17        13.7680   26.9120   41.9720 C.ar      1 TMP64      -0.1520
     30 C18        13.8040   25.6830   42.6010 C.ar      1 TMP64      -0.0790
     31 O19        14.6430   28.4100   40.3440 O.3       1 TMP64      -0.3040
     32 H13        16.4070   24.3020   40.9550 H         1 TMP64       0.1140
     33 H14        16.3430   26.4870   39.8230 H         1 TMP64       0.1190
     34 H15        13.0270   27.6440   42.2580 H         1 TMP64       0.1400
     35 H16        13.0920   25.4540   43.3790 H         1 TMP64       0.1100
     36 C20        15.4280   29.4600   40.9140 C.3       1 TMP64       0.0300
     37 C21        14.9620   29.7240   42.3480 C.3       1 TMP64      -0.1150
     38 C22        16.9020   29.0480   40.9240 C.3       1 TMP64      -0.1710
     39 C23        15.2630   30.7130   40.0930 C.2       1 TMP64       0.4820
     40 O24        14.5400   30.7070   39.1110 O.co2     1 TMP64      -0.6700
     41 O25        15.8530   31.7320   40.4110 O.co2     1 TMP64      -0.6860
     42 H17        15.5620   30.5250   42.7820 H         1 TMP64       0.0500
     43 H18        13.9130   30.0180   42.3400 H         1 TMP64       0.0780
     44 H19        15.0820   28.8180   42.9410 H         1 TMP64       0.0570
     45 H20        17.5000   29.8480   41.3590 H         1 TMP64       0.0670
     46 H21        17.0220   28.1410   41.5180 H         1 TMP64       0.0720
     47 H22        17.2330   28.8590   39.9030 H         1 TMP64       0.0510
@<TRIPOS>BOND
     1    1   10 1
     2    1   12 1
     3    1   11 1
     4    1    2 1
     5    3   13 1
     6   39   40 2
     7    2    3 ar
     8    2    7 ar
     9    3    4 ar
    10    7   15 1
    11   27   33 1
    12   38   47 1
    13    6    7 ar
    14   39   41 1
    15   36   39 1
    16   31   36 1
    17   28   31 1
    18   27   28 ar
    19   26   27 ar
    20   36   38 1
    21   36   37 1
    22   38   45 1
    23   38   46 1
    24   19   20 2
    25   26   32 1
    26   28   29 ar
    27    4    9 1
    28    4    5 ar
    29    9   18 1
    30   23   26 ar
    31    9   17 1
    32    5    6 ar
    33    6    8 1
    34    9   16 1
    35    5   14 1
    36   29   34 1
    37   29   30 ar
    38    8   19 am
    39   19   21 1
    40   23   30 ar
    41   21   23 1
    42    8   22 1
    43   37   43 1
    44   37   42 1
    45   37   44 1
    46   30   35 1
    47   21   24 1
    48   21   25 1
@<TRIPOS>MOLECULE
header  -12.049
   47    48     0     0     0
SMALL
USER_CHARGES

@<TRIPOS>ATOM
      1 C1         17.7550   19.3120   42.9800 C.3       1 TMP75      -0.1120
      2 C2         17.9910   18.5780   41.6860 C.ar      1 TMP75      -0.0660
      3 C3         17.5950   19.1450   40.4870 C.ar      1 TMP75      -0.1420
      4 C4         17.8100   18.4740   39.2970 C.ar      1 TMP75      -0.0630
      5 C5         18.4240   17.2370   39.3020 C.ar      1 TMP75      -0.1290
      6 C6         18.8230   16.6650   40.5030 C.ar      1 TMP75       0.1610
      7 C7         18.6100   17.3430   41.6960 C.ar      1 TMP75      -0.1580
      8 N8         19.4440   15.4120   40.5100 N.am      1 TMP75      -0.6820
      9 C9         17.3760   19.0950   37.9940 C.3       1 TMP75      -0.1140
     10 H1         17.2600   20.2610   42.7740 H         1 TMP75       0.0700
     11 H2         17.1230   18.7070   43.6300 H         1 TMP75       0.0660
     12 H3         18.7090   19.4990   43.4710 H         1 TMP75       0.0650
     13 H4         17.1150   20.1120   40.4820 H         1 TMP75       0.1200
     14 H5         18.5920   16.7140   38.3720 H         1 TMP75       0.1360
     15 H6         18.9230   16.9030   42.6310 H         1 TMP75       0.1230
     16 H7         17.6270   18.4260   37.1720 H         1 TMP75       0.0720
     17 H8         16.3000   19.2610   38.0120 H         1 TMP75       0.0670
     18 H9         17.8880   20.0470   37.8580 H         1 TMP75       0.0650
     19 C10        19.1450   14.5060   39.5570 C.2       1 TMP75       0.5110
     20 O11        18.3380   14.7780   38.6940 O.2       1 TMP75      -0.5000
     21 C12        19.8130   13.1550   39.5660 C.3       1 TMP75      -0.0850
     22 H10        20.0890   15.1930   41.2010 H         1 TMP75       0.4100
     23 C13        18.7680   12.0780   39.6920 C.ar      1 TMP75      -0.1310
     24 H11        20.3660   13.0170   38.6360 H         1 TMP75       0.1000
     25 H12        20.5010   13.0950   40.4100 H         1 TMP75       0.1000
     26 C14        17.5910   12.3340   40.3720 C.ar      1 TMP75      -0.0790
     27 C15        16.6310   11.3480   40.4890 C.ar      1 TMP75      -0.1710
     28 C16        16.8480   10.0990   39.9240 C.ar      1 TMP75       0.1720
     29 C17        18.0280    9.8450   39.2430 C.ar      1 TMP75      -0.1520
     30 C18        18.9830   10.8360   39.1240 C.ar      1 TMP75      -0.0790
     31 O19        15.9040    9.1280   40.0390 O.3       1 TMP75      -0.3040
     32 H13        17.4230   13.3070   40.8110 H         1 TMP75       0.1140
     33 H14        15.7120   11.5480   41.0210 H         1 TMP75       0.1190
     34 H15        18.2000    8.8740   38.8020 H         1 TMP75       0.1400
     35 H16        19.9010   10.6400   38.5900 H         1 TMP75       0.1100
     36 C20        14.9140    9.0600   39.0110 C.3       1 TMP75       0.0300
     37 C21        14.6730   10.4600   38.4420 C.3       1 TMP75      -0.1150
     38 C22        15.4010    8.1330   37.8950 C.3       1 TMP75      -0.1710
     39 C23        13.6290    8.5230   39.5850 C.2       1 TMP75       0.4820
     40 O24        12.8020    9.2890   40.0500 O.co2     1 TMP75      -0.6700
     41 O25        13.4160    7.3220   39.5870 O.co2     1 TMP75      -0.6860
     42 H17        13.9170   10.4080   37.6580 H         1 TMP75       0.0500
     43 H18        14.3260   11.1200   39.2360 H         1 TMP75       0.0780
     44 H19        15.6020   10.8480   38.0260 H         1 TMP75       0.0570
     45 H20        14.6450    8.0820   37.1100 H         1 TMP75       0.0670
     46 H21        16.3300    8.5210   37.4790 H         1 TMP75       0.0720
     47 H22        15.5720    7.1360   38.3000 H         1 TMP75       0.0510
@<TRIPOS>BOND
     1   38   45 1
     2    9   16 1
     3   38   46 1
     4   37   42 1
     5    9   18 1
     6   38   47 1
     7   36   38 1
     8    9   17 1
     9    4    9 1
    10   37   44 1
    11    5   14 1
    12   36   37 1
    13   37   43 1
    14   30   35 1
    15   21   24 1
    16   19   20 2
    17   29   34 1
    18   36   39 1
    19   31   36 1
    20   29   30 ar
    21   23   30 ar
    22   28   29 ar
    23    4    5 ar
    24    3    4 ar
    25    5    6 ar
    26   19   21 1
    27    8   19 am
    28   21   23 1
    29   21   25 1
    30   39   41 1
    31   39   40 2
    32   23   26 ar
    33   28   31 1
    34   27   28 ar
    35   26   27 ar
    36   26   32 1
    37    3   13 1
    38    2    3 ar
    39   27   33 1
    40    6    8 1
    41    6    7 ar
    42    8   22 1
    43    2    7 ar
    44    1    2 1
    45    7   15 1
    46    1   10 1
    47    1   12 1
    48    1   11 1
@<TRIPOS>MOLECULE
header  -14.152
   47    48     0     0     0
SMALL
USER_CHARGES

@<TRIPOS>ATOM
      1 C1          8.9700   15.1180   39.1310 C.3       1 TMP77      -0.1120
      2 C2         10.1090   14.2770   39.6470 C.ar      1 TMP77      -0.0660
      3 C3         10.2570   12.9720   39.2120 C.ar      1 TMP77      -0.1420
      4 C4         11.3010   12.1970   39.6830 C.ar      1 TMP77      -0.0630
      5 C5         12.2010   12.7260   40.5880 C.ar      1 TMP77      -0.1290
      6 C6         12.0560   14.0360   41.0270 C.ar      1 TMP77       0.1610
      7 C7         11.0080   14.8120   40.5480 C.ar      1 TMP77      -0.1580
      8 N8         12.9650   14.5730   41.9440 N.am      1 TMP77      -0.6820
      9 C9         11.4580   10.7760   39.2070 C.3       1 TMP77      -0.1140
     10 H1          8.3710   14.5290   38.4350 H         1 TMP77       0.0700
     11 H2          8.3470   15.4370   39.9670 H         1 TMP77       0.0660
     12 H3          9.3670   15.9930   38.6180 H         1 TMP77       0.0650
     13 H4          9.5550   12.5570   38.5050 H         1 TMP77       0.1200
     14 H5         13.0160   12.1200   40.9560 H         1 TMP77       0.1360
     15 H6         10.8950   15.8320   40.8840 H         1 TMP77       0.1230
     16 H7         12.3300   10.3280   39.6840 H         1 TMP77       0.0720
     17 H8         10.5680   10.2050   39.4690 H         1 TMP77       0.0670
     18 H9         11.5900   10.7680   38.1260 H         1 TMP77       0.0650
     19 C10        13.1120   14.0060   43.1580 C.2       1 TMP77       0.5110
     20 O11        12.4550   13.0290   43.4550 O.2       1 TMP77      -0.5000
     21 C12        14.0910   14.5840   44.1470 C.3       1 TMP77      -0.0850
     22 H10        13.4890   15.3540   41.7070 H         1 TMP77       0.4100
     23 C13        15.4780   14.5500   43.5590 C.ar      1 TMP77      -0.1310
     24 H11        13.8160   15.6150   44.3700 H         1 TMP77       0.1000
     25 H12        14.0700   13.9970   45.0650 H         1 TMP77       0.1000
     26 C14        15.8210   13.5590   42.6580 C.ar      1 TMP77      -0.0790
     27 C15        17.0920   13.5250   42.1180 C.ar      1 TMP77      -0.1710
     28 C16        18.0240   14.4880   42.4800 C.ar      1 TMP77       0.1720
     29 C17        17.6770   15.4810   43.3830 C.ar      1 TMP77      -0.1520
     30 C18        16.4030   15.5140   43.9160 C.ar      1 TMP77      -0.0790
     31 O19        19.2750   14.4560   41.9500 O.3       1 TMP77      -0.3040
     32 H13        15.0960   12.8100   42.3780 H         1 TMP77       0.1140
     33 H14        17.3600   12.7500   41.4150 H         1 TMP77       0.1190
     34 H15        18.4000   16.2320   43.6660 H         1 TMP77       0.1400
     35 H16        16.1310   16.2900   44.6160 H         1 TMP77       0.1100
     36 C20        19.4840   15.1790   40.7350 C.3       1 TMP77       0.0300
     37 C21        19.9090   16.6120   41.0600 C.3       1 TMP77      -0.1150
     38 C22        20.5800   14.4950   39.9160 C.3       1 TMP77      -0.1710
     39 C23        18.2040   15.2040   39.9380 C.2       1 TMP77       0.4820
     40 O24        17.4030   16.1080   40.1000 O.co2     1 TMP77      -0.6700
     41 O25        17.9700   14.3190   39.1330 O.co2     1 TMP77      -0.6860
     42 H17        20.0680   17.1640   40.1340 H         1 TMP77       0.0500
     43 H18        19.1280   17.0990   41.6440 H         1 TMP77       0.0780
     44 H19        20.8340   16.5950   41.6360 H         1 TMP77       0.0570
     45 H20        20.7400   15.0460   38.9890 H         1 TMP77       0.0670
     46 H21        21.5060   14.4770   40.4920 H         1 TMP77       0.0720
     47 H22        20.2770   13.4740   39.6840 H         1 TMP77       0.0510
@<TRIPOS>BOND
     1    9   18 1
     2    1   10 1
     3    3   13 1
     4    1   12 1
     5   38   45 1
     6    1    2 1
     7    1   11 1
     8   39   41 1
     9    9   17 1
    10    4    9 1
    11    9   16 1
    12    2    3 ar
    13    3    4 ar
    14    2    7 ar
    15    4    5 ar
    16   38   47 1
    17   38   46 1
    18   36   38 1
    19   39   40 2
    20   36   39 1
    21   37   42 1
    22    7   15 1
    23    6    7 ar
    24    5   14 1
    25    5    6 ar
    26   36   37 1
    27   31   36 1
    28    6    8 1
    29   37   44 1
    30   37   43 1
    31   27   33 1
    32    8   22 1
    33    8   19 am
    34   28   31 1
    35   27   28 ar
    36   26   27 ar
    37   26   32 1
    38   28   29 ar
    39   23   26 ar
    40   19   20 2
    41   19   21 1
    42   29   34 1
    43   29   30 ar
    44   23   30 ar
    45   21   23 1
    46   30   35 1
    47   21   24 1
    48   21   25 1
@<TRIPOS>MOLECULE
header  -37.664
   47    48     0     0     0
SMALL
USER_CHARGES

@<TRIPOS>ATOM
      1 C1         18.8600   16.0000   41.2290 C.3       1 TMP82      -0.1120
      2 C2         18.2520   17.3760   41.1480 C.ar      1 TMP82      -0.0660
      3 C3         17.9160   18.0530   42.3060 C.ar      1 TMP82      -0.1420
      4 C4         17.3570   19.3160   42.2350 C.ar      1 TMP82      -0.0630
      5 C5         17.1350   19.9060   41.0060 C.ar      1 TMP82      -0.1290
      6 C6         17.4720   19.2300   39.8410 C.ar      1 TMP82       0.1610
      7 C7         18.0370   17.9630   39.9160 C.ar      1 TMP82      -0.1580
      8 N8         17.2470   19.8240   38.5950 N.am      1 TMP82      -0.6820
      9 C9         16.9920   20.0500   43.5010 C.3       1 TMP82      -0.1140
     10 H1         18.9520   15.7050   42.2750 H         1 TMP82       0.0700
     11 H2         18.2200   15.2880   40.7070 H         1 TMP82       0.0660
     12 H3         19.8460   16.0100   40.7660 H         1 TMP82       0.0650
     13 H4         18.0890   17.5930   43.2680 H         1 TMP82       0.1200
     14 H5         16.6990   20.8930   40.9520 H         1 TMP82       0.1360
     15 H6         18.3030   17.4360   39.0120 H         1 TMP82       0.1230
     16 H7         16.5690   21.0210   43.2470 H         1 TMP82       0.0720
     17 H8         16.2590   19.4680   44.0580 H         1 TMP82       0.0670
     18 H9         17.8850   20.1890   44.1100 H         1 TMP82       0.0650
     19 C10        16.2280   20.6930   38.4370 C.2       1 TMP82       0.5110
     20 O11        15.5060   20.9580   39.3750 O.2       1 TMP82      -0.5000
     21 C12        15.9850   21.3330   37.0940 C.3       1 TMP82      -0.0850
     22 H10        17.8240   19.6120   37.8450 H         1 TMP82       0.4100
     23 C13        14.6060   20.9710   36.6070 C.ar      1 TMP82      -0.1310
     24 H11        16.0640   22.4160   37.1900 H         1 TMP82       0.1000
     25 H12        16.7280   20.9760   36.3820 H         1 TMP82       0.1000
     26 C14        13.5270   21.7750   36.9260 C.ar      1 TMP82      -0.0790
     27 C15        12.2620   21.4440   36.4810 C.ar      1 TMP82      -0.1710
     28 C16        12.0740   20.3060   35.7120 C.ar      1 TMP82       0.1720
     29 C17        13.1580   19.5010   35.3910 C.ar      1 TMP82      -0.1520
     30 C18        14.4220   19.8390   35.8340 C.ar      1 TMP82      -0.0790
     31 O19        10.8300   19.9790   35.2720 O.3       1 TMP82      -0.3040
     32 H13        13.6740   22.6610   37.5260 H         1 TMP82       0.1140
     33 H14        11.4200   22.0720   36.7320 H         1 TMP82       0.1190
     34 H15        13.0140   18.6140   34.7920 H         1 TMP82       0.1400
     35 H16        15.2670   19.2150   35.5820 H         1 TMP82       0.1100
     36 C20        10.0430   19.1400   36.1190 C.3       1 TMP82       0.0300
     37 C21         8.6860   18.8820   35.4620 C.3       1 TMP82      -0.1150
     38 C22        10.7660   17.8090   36.3340 C.3       1 TMP82      -0.1710
     39 C23         9.8370   19.8200   37.4490 C.2       1 TMP82       0.4820
     40 O24         8.8740   20.5480   37.6170 O.co2     1 TMP82      -0.6700
     41 O25        10.6340   19.6410   38.3550 O.co2     1 TMP82      -0.6860
     42 H17         8.0840   18.2420   36.1090 H         1 TMP82       0.0500
     43 H18         8.1700   19.8310   35.3100 H         1 TMP82       0.0780
     44 H19         8.8350   18.3910   34.5010 H         1 TMP82       0.0570
     45 H20        10.1660   17.1680   36.9810 H         1 TMP82       0.0670
     46 H21        10.9150   17.3170   35.3730 H         1 TMP82       0.0720
     47 H22        11.7340   17.9920   36.8020 H         1 TMP82       0.0510
@<TRIPOS>BOND
     1   37   44 1
     2   29   34 1
     3   28   31 1
     4   31   36 1
     5   37   43 1
     6   38   46 1
     7   28   29 ar
     8   29   30 ar
     9   37   42 1
    10   36   37 1
    11   30   35 1
    12   27   28 ar
    13   23   30 ar
    14   36   38 1
    15   36   39 1
    16   38   47 1
    17   38   45 1
    18   21   25 1
    19   27   33 1
    20   26   27 ar
    21   23   26 ar
    22   21   23 1
    23   26   32 1
    24   21   24 1
    25   19   21 1
    26   39   40 2
    27   39   41 1
    28    8   22 1
    29    8   19 am
    30   19   20 2
    31    6    8 1
    32    7   15 1
    33    6    7 ar
    34    5    6 ar
    35    2    7 ar
    36    1   11 1
    37    1   12 1
    38    5   14 1
    39    4    5 ar
    40    1    2 1
    41    2    3 ar
    42    1   10 1
    43    3    4 ar
    44    4    9 1
    45    3   13 1
    46    9   16 1
    47    9   17 1
    48    9   18 1
@<TRIPOS>MOLECULE
header  -34.924
   47    48     0     0     0
SMALL
USER_CHARGES

@<TRIPOS>ATOM
      1 C1         17.2310   17.4200   43.8910 C.3       1 TMP84      -0.1120
      2 C2         17.4160   18.0110   42.5170 C.ar      1 TMP84      -0.0660
      3 C3         18.0590   17.2830   41.5320 C.ar      1 TMP84      -0.1420
      4 C4         18.2300   17.8230   40.2700 C.ar      1 TMP84      -0.0630
      5 C5         17.7560   19.0890   39.9890 C.ar      1 TMP84      -0.1290
      6 C6         17.1100   19.8220   40.9760 C.ar      1 TMP84       0.1610
      7 C7         16.9350   19.2760   42.2410 C.ar      1 TMP84      -0.1580
      8 N8         16.6300   21.1060   40.6950 N.am      1 TMP84      -0.6820
      9 C9         18.9330   17.0270   39.2000 C.3       1 TMP84      -0.1140
     10 H1         17.6720   16.4230   43.9190 H         1 TMP84       0.0700
     11 H2         17.7230   18.0540   44.6280 H         1 TMP84       0.0660
     12 H3         16.1680   17.3530   44.1180 H         1 TMP84       0.0650
     13 H4         18.4300   16.2930   41.7490 H         1 TMP84       0.1200
     14 H5         17.8900   19.5100   39.0040 H         1 TMP84       0.1360
     15 H6         16.4290   19.8420   43.0080 H         1 TMP84       0.1230
     16 H7         18.9720   17.6100   38.2810 H         1 TMP84       0.0720
     17 H8         19.9450   16.7950   39.5270 H         1 TMP84       0.0670
     18 H9         18.3880   16.1010   39.0200 H         1 TMP84       0.0650
     19 C10        16.5670   22.0310   41.6730 C.2       1 TMP84       0.5110
     20 O11        16.9250   21.7510   42.7970 O.2       1 TMP84      -0.5000
     21 C12        16.0510   23.4140   41.3690 C.3       1 TMP84      -0.0850
     22 H10        16.3430   21.3310   39.7950 H         1 TMP84       0.4100
     23 C13        14.6340   23.3220   40.8630 C.ar      1 TMP84      -0.1310
     24 H11        16.0730   24.0180   42.2770 H         1 TMP84       0.1000
     25 H12        16.6780   23.8780   40.6090 H         1 TMP84       0.1000
     26 C14        13.8140   22.2940   41.2910 C.ar      1 TMP84      -0.0790
     27 C15        12.5150   22.2080   40.8290 C.ar      1 TMP84      -0.1710
     28 C16        12.0340   23.1520   39.9350 C.ar      1 TMP84       0.1720
     29 C17        12.8580   24.1830   39.5080 C.ar      1 TMP84      -0.1520
     30 C18        14.1550   24.2680   39.9770 C.ar      1 TMP84      -0.0790
     31 O19        10.7560   23.0680   39.4780 O.3       1 TMP84      -0.3040
     32 H13        14.1890   21.5590   41.9880 H         1 TMP84       0.1140
     33 H14        11.8760   21.4040   41.1640 H         1 TMP84       0.1190
     34 H15        12.4860   24.9200   38.8120 H         1 TMP84       0.1400
     35 H16        14.7960   25.0730   39.6480 H         1 TMP84       0.1100
     36 C20        10.5420   22.3090   38.2870 C.3       1 TMP84       0.0300
     37 C21         9.9380   23.2120   37.2090 C.3       1 TMP84      -0.1150
     38 C22        11.8770   21.7480   37.7930 C.3       1 TMP84      -0.1710
     39 C23         9.5960   21.1730   38.5790 C.2       1 TMP84       0.4820
     40 O24         9.1470   21.0270   39.7030 O.co2     1 TMP84      -0.6700
     41 O25         9.2800   20.4000   37.6910 O.co2     1 TMP84      -0.6860
     42 H17         9.7740   22.6330   36.3000 H         1 TMP84       0.0500
     43 H18         8.9870   23.6120   37.5610 H         1 TMP84       0.0780
     44 H19        10.6230   24.0330   36.9980 H         1 TMP84       0.0570
     45 H20        11.7140   21.1680   36.8840 H         1 TMP84       0.0670
     46 H21        12.5610   22.5690   37.5820 H         1 TMP84       0.0720
     47 H22        12.3060   21.1040   38.5610 H         1 TMP84       0.0510
@<TRIPOS>BOND
     1   37   42 1
     2   38   45 1
     3   37   44 1
     4   37   43 1
     5   36   37 1
     6   38   46 1
     7   39   41 2
     8   36   38 1
     9   38   47 1
    10    9   16 1
    11   36   39 1
    12   31   36 1
    13   39   40 1
    14   29   34 1
    15    5   14 1
    16    9   18 1
    17    9   17 1
    18    4    9 1
    19   28   31 1
    20   28   29 ar
    21   29   30 ar
    22   30   35 1
    23    8   22 1
    24   27   28 ar
    25   23   30 ar
    26    4    5 ar
    27    5    6 ar
    28    3    4 ar
    29   21   25 1
    30    6    8 1
    31    8   19 am
    32   27   33 1
    33   26   27 ar
    34   23   26 ar
    35   21   23 1
    36    6    7 ar
    37   26   32 1
    38   19   21 1
    39   21   24 1
    40    3   13 1
    41    2    3 ar
    42   19   20 2
    43    2    7 ar
    44    7   15 1
    45    1    2 1
    46    1   10 1
    47    1   12 1
    48    1   11 1
@<TRIPOS>MOLECULE
header  -33.351
   47    48     0     0     0
SMALL
USER_CHARGES

@<TRIPOS>ATOM
      1 C1         18.3350   18.1600   41.7370 C.3       1 TMP92      -0.1120
      2 C2         17.8380   18.8140   40.4730 C.ar      1 TMP92      -0.0660
      3 C3         18.2890   18.3710   39.2420 C.ar      1 TMP92      -0.1420
      4 C4         17.8360   18.9680   38.0800 C.ar      1 TMP92      -0.0630
      5 C5         16.9290   20.0080   38.1450 C.ar      1 TMP92      -0.1290
      6 C6         16.4750   20.4560   39.3790 C.ar      1 TMP92       0.1610
      7 C7         16.9280   19.8500   40.5440 C.ar      1 TMP92      -0.1580
      8 N8         15.5580   21.5100   39.4480 N.am      1 TMP92      -0.6820
      9 C9         18.3300   18.4820   36.7420 C.3       1 TMP92      -0.1140
     10 H1         19.0400   17.3690   41.4830 H         1 TMP92       0.0700
     11 H2         18.8320   18.9040   42.3590 H         1 TMP92       0.0660
     12 H3         17.4920   17.7350   42.2810 H         1 TMP92       0.0650
     13 H4         18.9970   17.5570   39.1890 H         1 TMP92       0.1200
     14 H5         16.5760   20.4740   37.2380 H         1 TMP92       0.1360
     15 H6         16.5740   20.1930   41.5040 H         1 TMP92       0.1230
     16 H7         17.8660   19.0680   35.9490 H         1 TMP92       0.0720
     17 H8         19.4120   18.5960   36.6920 H         1 TMP92       0.0670
     18 H9         18.0690   17.4320   36.6180 H         1 TMP92       0.0650
     19 C10        15.5580   22.3350   40.5140 C.2       1 TMP92       0.5110
     20 O11        16.3530   22.1630   41.4140 O.2       1 TMP92      -0.5000
     21 C12        14.5710   23.4710   40.5880 C.3       1 TMP92      -0.0850
     22 H10        14.9220   21.6480   38.7280 H         1 TMP92       0.4100
     23 C13        13.1690   22.9210   40.5540 C.ar      1 TMP92      -0.1310
     24 H11        14.7220   24.0240   41.5160 H         1 TMP92       0.1000
     25 H12        14.7200   24.1390   39.7390 H         1 TMP92       0.1000
     26 C14        12.5270   22.5910   41.7350 C.ar      1 TMP92      -0.0790
     27 C15        11.2420   22.0870   41.7070 C.ar      1 TMP92      -0.1710
     28 C16        10.5940   21.9100   40.4930 C.ar      1 TMP92       0.1720
     29 C17        11.2400   22.2420   39.3090 C.ar      1 TMP92      -0.1520
     30 C18        12.5230   22.7510   39.3440 C.ar      1 TMP92      -0.0790
     31 O19         9.3300   21.4130   40.4620 O.3       1 TMP92      -0.3040
     32 H13        13.0330   22.7290   42.6790 H         1 TMP92       0.1140
     33 H14        10.7420   21.8300   42.6290 H         1 TMP92       0.1190
     34 H15        10.7370   22.1060   38.3630 H         1 TMP92       0.1400
     35 H16        13.0240   23.0140   38.4240 H         1 TMP92       0.1100
     36 C20         8.2600   22.3580   40.5240 C.3       1 TMP92       0.0300
     37 C21         8.3570   23.1540   41.8280 C.3       1 TMP92      -0.1150
     38 C22         8.3540   23.3150   39.3350 C.3       1 TMP92      -0.1710
     39 C23         6.9430   21.6280   40.4780 C.2       1 TMP92       0.4820
     40 O24         6.4100   21.2650   41.5140 O.co2     1 TMP92      -0.6700
     41 O25         6.4070   21.4010   39.4070 O.co2     1 TMP92      -0.6860
     42 H17         7.5410   23.8740   41.8750 H         1 TMP92       0.0500
     43 H18         8.2890   22.4720   42.6750 H         1 TMP92       0.0780
     44 H19         9.3110   23.6820   41.8600 H         1 TMP92       0.0570
     45 H20         7.5380   24.0360   39.3820 H         1 TMP92       0.0670
     46 H21         9.3070   23.8430   39.3670 H         1 TMP92       0.0720
     47 H22         8.2840   22.7490   38.4050 H         1 TMP92       0.0510
@<TRIPOS>BOND
     1    9   16 1
     2    9   18 1
     3    9   17 1
     4    4    9 1
     5    5   14 1
     6    4    5 ar
     7    3    4 ar
     8    5    6 ar
     9   29   34 1
    10   38   47 1
    11   30   35 1
    12    8   22 1
    13    3   13 1
    14    2    3 ar
    15   29   30 ar
    16   28   29 ar
    17   38   46 1
    18   38   45 1
    19   36   38 1
    20   23   30 ar
    21    6    8 1
    22    6    7 ar
    23   39   41 2
    24    8   19 am
    25   21   25 1
    26   28   31 1
    27   31   36 1
    28    2    7 ar
    29    1    2 1
    30   36   39 1
    31   39   40 1
    32   27   28 ar
    33   19   21 1
    34   19   20 2
    35   36   37 1
    36    7   15 1
    37   21   23 1
    38   23   26 ar
    39   21   24 1
    40    1   10 1
    41   26   27 ar
    42   27   33 1
    43   26   32 1
    44    1   12 1
    45    1   11 1
    46   37   44 1
    47   37   42 1
    48   37   43 1
@<TRIPOS>MOLECULE
header  -28.209
   47    48     0     0     0
SMALL
USER_CHARGES

@<TRIPOS>ATOM
      1 C1         19.4760   17.9570   38.9960 C.3       1 TMP94      -0.1120
      2 C2         18.4490   18.1880   40.0740 C.ar      1 TMP94      -0.0660
      3 C3         18.4000   17.3510   41.1740 C.ar      1 TMP94      -0.1420
      4 C4         17.4580   17.5610   42.1650 C.ar      1 TMP94      -0.0630
      5 C5         16.5640   18.6090   42.0590 C.ar      1 TMP94      -0.1290
      6 C6         16.6110   19.4510   40.9560 C.ar      1 TMP94       0.1610
      7 C7         17.5610   19.2410   39.9650 C.ar      1 TMP94      -0.1580
      8 N8         15.7060   20.5120   40.8460 N.am      1 TMP94      -0.6820
      9 C9         17.4080   16.6460   43.3620 C.3       1 TMP94      -0.1140
     10 H1         20.0830   17.0880   39.2550 H         1 TMP94       0.0700
     11 H2         18.9730   17.7790   38.0470 H         1 TMP94       0.0660
     12 H3         20.1170   18.8340   38.9100 H         1 TMP94       0.0650
     13 H4         19.0980   16.5320   41.2590 H         1 TMP94       0.1200
     14 H5         15.8290   18.7720   42.8330 H         1 TMP94       0.1360
     15 H6         17.6020   19.8960   39.1090 H         1 TMP94       0.1230
     16 H7         16.6080   16.9650   44.0290 H         1 TMP94       0.0720
     17 H8         17.2190   15.6260   43.0300 H         1 TMP94       0.0670
     18 H9         18.3600   16.6860   43.8890 H         1 TMP94       0.0650
     19 C10        15.3130   20.9400   39.6290 C.2       1 TMP94       0.5110
     20 O11        15.7450   20.4050   38.6300 O.2       1 TMP94      -0.5000
     21 C12        14.3380   22.0830   39.5110 C.3       1 TMP94      -0.0850
     22 H10        15.3600   20.9410   41.6450 H         1 TMP94       0.4100
     23 C13        13.1030   21.6160   38.7850 C.ar      1 TMP94      -0.1310
     24 H11        14.0640   22.4320   40.5060 H         1 TMP94       0.1000
     25 H12        14.8010   22.8980   38.9540 H         1 TMP94       0.1000
     26 C14        12.0420   21.0890   39.4980 C.ar      1 TMP94      -0.0790
     27 C15        10.9080   20.6590   38.8350 C.ar      1 TMP94      -0.1710
     28 C16        10.8350   20.7580   37.4530 C.ar      1 TMP94       0.1720
     29 C17        11.9000   21.2880   36.7400 C.ar      1 TMP94      -0.1520
     30 C18        13.0290   21.7210   37.4080 C.ar      1 TMP94      -0.0790
     31 O19         9.7210   20.3370   36.7980 O.3       1 TMP94      -0.3040
     32 H13        12.0990   21.0110   40.5730 H         1 TMP94       0.1140
     33 H14        10.0800   20.2470   39.3920 H         1 TMP94       0.1190
     34 H15        11.8460   21.3670   35.6640 H         1 TMP94       0.1400
     35 H16        13.8580   22.1380   36.8540 H         1 TMP94       0.1100
     36 C20         8.6840   21.2990   36.5960 C.3       1 TMP94       0.0300
     37 C21         9.2260   22.4690   35.7720 C.3       1 TMP94      -0.1150
     38 C22         7.5200   20.6450   35.8490 C.3       1 TMP94      -0.1710
     39 C23         8.2020   21.8060   37.9310 C.2       1 TMP94       0.4820
     40 O24         8.7280   22.7810   38.4390 O.co2     1 TMP94      -0.6700
     41 O25         7.2860   21.2400   38.5030 O.co2     1 TMP94      -0.6860
     42 H17         8.4350   23.2020   35.6180 H         1 TMP94       0.0500
     43 H18        10.0550   22.9350   36.3050 H         1 TMP94       0.0780
     44 H19         9.5750   22.1020   34.8070 H         1 TMP94       0.0570
     45 H20         6.7290   21.3790   35.6950 H         1 TMP94       0.0670
     46 H21         7.8690   20.2790   34.8830 H         1 TMP94       0.0720
     47 H22         7.1330   19.8120   36.4360 H         1 TMP94       0.0510
@<TRIPOS>BOND
     1   37   44 1
     2   38   46 1
     3   37   42 1
     4   29   34 1
     5   38   45 1
     6   37   43 1
     7   36   37 1
     8   38   47 1
     9   36   38 1
    10   31   36 1
    11   36   39 1
    12   29   30 ar
    13   28   29 ar
    14   28   31 1
    15   30   35 1
    16   23   30 ar
    17   27   28 ar
    18   39   40 2
    19   39   41 1
    20    1   11 1
    21   19   20 2
    22   23   26 ar
    23   21   23 1
    24   27   33 1
    25   26   27 ar
    26    1   12 1
    27   21   25 1
    28    1   10 1
    29    1    2 1
    30    7   15 1
    31   26   32 1
    32   19   21 1
    33   21   24 1
    34    8   19 am
    35    2    7 ar
    36    6    7 ar
    37    2    3 ar
    38    6    8 1
    39    8   22 1
    40    5    6 ar
    41    3   13 1
    42    3    4 ar
    43    4    5 ar
    44    5   14 1
    45    4    9 1
    46    9   17 1
    47    9   18 1
    48    9   16 1
@<TRIPOS>MOLECULE
header  -13.242
   47    48     0     0     0
SMALL
USER_CHARGES

@<TRIPOS>ATOM
      1 C1         19.0340   14.7490   42.0660 C.3       1 TMP101     -0.1120
      2 C2         18.3120   16.0620   41.9050 C.ar      1 TMP101     -0.0660
      3 C3         17.5750   16.5790   42.9550 C.ar      1 TMP101     -0.1420
      4 C4         16.9120   17.7840   42.8110 C.ar      1 TMP101     -0.0630
      5 C5         16.9850   18.4760   41.6170 C.ar      1 TMP101     -0.1290
      6 C6         17.7250   17.9590   40.5610 C.ar      1 TMP101      0.1610
      7 C7         18.3940   16.7520   40.7110 C.ar      1 TMP101     -0.1580
      8 N8         17.8000   18.6570   39.3510 N.am      1 TMP101     -0.6820
      9 C9         16.1090   18.3430   43.9570 C.3       1 TMP101     -0.1140
     10 H1         18.8550   14.3570   43.0680 H         1 TMP101      0.0700
     11 H2         18.6650   14.0390   41.3270 H         1 TMP101      0.0660
     12 H3         20.1030   14.9020   41.9220 H         1 TMP101      0.0650
     13 H4         17.5170   16.0410   43.8890 H         1 TMP101      0.1200
     14 H5         16.4670   19.4160   41.5050 H         1 TMP101      0.1360
     15 H6         18.9730   16.3500   39.8930 H         1 TMP101      0.1230
     16 H7         15.6620   19.2910   43.6590 H         1 TMP101      0.0720
     17 H8         15.3220   17.6390   44.2260 H         1 TMP101      0.0670
     18 H9         16.7620   18.5020   44.8140 H         1 TMP101      0.0650
     19 C10        17.9540   17.9840   38.1930 C.2       1 TMP101      0.5110
     20 O11        18.0280   16.7740   38.2000 O.2       1 TMP101     -0.5000
     21 C12        18.0340   18.7360   36.8900 C.3       1 TMP101     -0.0850
     22 H10        17.7400   19.6260   39.3450 H         1 TMP101      0.4100
     23 C13        16.7670   19.5250   36.6850 C.ar      1 TMP101     -0.1310
     24 H11        18.8860   19.4160   36.9140 H         1 TMP101      0.1000
     25 H12        18.1580   18.0280   36.0690 H         1 TMP101      0.1000
     26 C14        16.6760   20.8200   37.1600 C.ar      1 TMP101     -0.0790
     27 C15        15.5160   21.5460   36.9750 C.ar      1 TMP101     -0.1710
     28 C16        14.4410   20.9740   36.3110 C.ar      1 TMP101      0.1720
     29 C17        14.5340   19.6740   35.8350 C.ar      1 TMP101     -0.1520
     30 C18        15.6980   18.9550   36.0180 C.ar      1 TMP101     -0.0790
     31 O19        13.2970   21.6860   36.1280 O.3       1 TMP101     -0.3040
     32 H13        17.5140   21.2650   37.6770 H         1 TMP101      0.1140
     33 H14        15.4450   22.5570   37.3470 H         1 TMP101      0.1190
     34 H15        13.6980   19.2270   35.3170 H         1 TMP101      0.1400
     35 H16        15.7730   17.9440   35.6440 H         1 TMP101      0.1100
     36 C20        12.3010   21.5870   37.1470 C.3       1 TMP101      0.0300
     37 C21        12.8810   22.0760   38.4750 C.3       1 TMP101     -0.1150
     38 C22        11.0960   22.4500   36.7690 C.3       1 TMP101     -0.1710
     39 C23        11.8660   20.1500   37.2870 C.2       1 TMP101      0.4820
     40 O24        12.4440   19.4110   38.0650 O.co2     1 TMP101     -0.6700
     41 O25        10.9360   19.7280   36.6220 O.co2     1 TMP101     -0.6860
     42 H17        12.1210   22.0010   39.2540 H         1 TMP101      0.0500
     43 H18        13.7390   21.4600   38.7460 H         1 TMP101      0.0780
     44 H19        13.1950   23.1140   38.3750 H         1 TMP101      0.0570
     45 H20        10.3360   22.3740   37.5460 H         1 TMP101      0.0670
     46 H21        11.4100   23.4890   36.6660 H         1 TMP101      0.0720
     47 H22        10.6820   22.1010   35.8210 H         1 TMP101      0.0510
@<TRIPOS>BOND
     1   29   34 1
     2   30   35 1
     3   38   47 1
     4   29   30 ar
     5   28   29 ar
     6   23   30 ar
     7   21   25 1
     8   28   31 1
     9   31   36 1
    10   27   28 ar
    11   39   41 2
    12   38   46 1
    13   21   23 1
    14   23   26 ar
    15   36   38 1
    16   38   45 1
    17   21   24 1
    18   19   21 1
    19   26   27 ar
    20   27   33 1
    21   36   39 1
    22   36   37 1
    23   26   32 1
    24   39   40 1
    25   19   20 2
    26    8   19 am
    27   37   44 1
    28   37   43 1
    29   37   42 1
    30    8   22 1
    31    6    8 1
    32    7   15 1
    33    6    7 ar
    34    5    6 ar
    35    2    7 ar
    36    1   11 1
    37    5   14 1
    38    4    5 ar
    39    1    2 1
    40    2    3 ar
    41    1   12 1
    42    1   10 1
    43    3    4 ar
    44    4    9 1
    45    3   13 1
    46    9   16 1
    47    9   17 1
    48    9   18 1
@<TRIPOS>MOLECULE
header   -9.219
   47    48     0     0     0
SMALL
USER_CHARGES

@<TRIPOS>ATOM
      1 C1          6.4760   16.9840   35.6220 C.3       1 TMP111     -0.1120
      2 C2          7.7180   16.7630   36.4460 C.ar      1 TMP111     -0.0660
      3 C3          8.5400   17.8320   36.7570 C.ar      1 TMP111     -0.1420
      4 C4          9.6810   17.6330   37.5140 C.ar      1 TMP111     -0.0630
      5 C5         10.0010   16.3670   37.9630 C.ar      1 TMP111     -0.1290
      6 C6          9.1770   15.2920   37.6530 C.ar      1 TMP111      0.1610
      7 C7          8.0300   15.4960   36.8970 C.ar      1 TMP111     -0.1580
      8 N8          9.5000   14.0080   38.1060 N.am      1 TMP111     -0.6820
      9 C9         10.5740   18.8000   37.8490 C.3       1 TMP111     -0.1140
     10 H1          6.3970   18.0400   35.3610 H         1 TMP111      0.0700
     11 H2          6.5340   16.3880   34.7120 H         1 TMP111      0.0660
     12 H3          5.6000   16.6860   36.1970 H         1 TMP111      0.0650
     13 H4          8.2920   18.8220   36.4070 H         1 TMP111      0.1200
     14 H5         10.8920   16.2120   38.5530 H         1 TMP111      0.1360
     15 H6          7.3860   14.6630   36.6590 H         1 TMP111      0.1230
     16 H7         11.4160   18.4510   38.4470 H         1 TMP111      0.0720
     17 H8         10.9440   19.2500   36.9280 H         1 TMP111      0.0670
     18 H9         10.0080   19.5390   38.4140 H         1 TMP111      0.0650
     19 C10         9.1340   12.9280   37.3870 C.2       1 TMP111      0.5110
     20 O11         8.5250   13.0690   36.3470 O.2       1 TMP111     -0.5000
     21 C12         9.4820   11.5460   37.8750 C.3       1 TMP111     -0.0850
     22 H10         9.9870   13.8950   38.9380 H         1 TMP111      0.4100
     23 C13         8.8520   11.3150   39.2240 C.ar      1 TMP111     -0.1310
     24 H11         9.1070   10.8050   37.1670 H         1 TMP111      0.1000
     25 H12        10.5650   11.4510   37.9590 H         1 TMP111      0.1000
     26 C14         7.5810   10.7750   39.3080 C.ar      1 TMP111     -0.0790
     27 C15         7.0000   10.5630   40.5430 C.ar      1 TMP111     -0.1710
     28 C16         7.6920   10.8920   41.7000 C.ar      1 TMP111      0.1720
     29 C17         8.9670   11.4340   41.6120 C.ar      1 TMP111     -0.1520
     30 C18         9.5450   11.6390   40.3750 C.ar      1 TMP111     -0.0790
     31 O19         7.1230   10.6850   42.9160 O.3       1 TMP111     -0.3040
     32 H13         7.0420   10.5200   38.4070 H         1 TMP111      0.1140
     33 H14         6.0070   10.1410   40.6090 H         1 TMP111      0.1190
     34 H15         9.5080   11.6900   42.5110 H         1 TMP111      0.1400
     35 H16        10.5390   12.0560   40.3060 H         1 TMP111      0.1100
     36 C20         7.3500    9.4160   43.5310 C.3       1 TMP111      0.0300
     37 C21         8.7110    8.8720   43.0910 C.3       1 TMP111     -0.1150
     38 C22         7.3330    9.5760   45.0530 C.3       1 TMP111     -0.1710
     39 C23         6.2660    8.4550   43.1150 C.2       1 TMP111      0.4820
     40 O24         6.4100    7.7680   42.1180 O.co2     1 TMP111     -0.6700
     41 O25         5.2460    8.3640   43.7760 O.co2     1 TMP111     -0.6860
     42 H17         8.8840    7.9030   43.5600 H         1 TMP111      0.0500
     43 H18         8.7230    8.7580   42.0070 H         1 TMP111      0.0780
     44 H19         9.4940    9.5670   43.3920 H         1 TMP111      0.0570
     45 H20         7.5060    8.6080   45.5220 H         1 TMP111      0.0670
     46 H21         8.1170   10.2710   45.3540 H         1 TMP111      0.0720
     47 H22         6.3640    9.9630   45.3670 H         1 TMP111      0.0510
@<TRIPOS>BOND
     1    1   11 1
     2    1   10 1
     3    1   12 1
     4    1    2 1
     5   19   20 2
     6    3   13 1
     7    2    3 ar
     8    2    7 ar
     9    7   15 1
    10    3    4 ar
    11    6    7 ar
    12    9   17 1
    13   21   24 1
    14   19   21 1
    15    8   19 am
    16    4    9 1
    17    4    5 ar
    18    5    6 ar
    19    6    8 1
    20    9   18 1
    21    9   16 1
    22   21   25 1
    23   21   23 1
    24    5   14 1
    25    8   22 1
    26   26   32 1
    27   23   26 ar
    28   23   30 ar
    29   26   27 ar
    30   30   35 1
    31   29   30 ar
    32   27   33 1
    33   27   28 ar
    34   28   29 ar
    35   29   34 1
    36   28   31 1
    37   37   43 1
    38   39   40 1
    39   31   36 1
    40   37   44 1
    41   36   37 1
    42   37   42 1
    43   36   39 1
    44   39   41 2
    45   36   38 1
    46   38   46 1
    47   38   47 1
    48   38   45 1
@<TRIPOS>MOLECULE
header  -13.576
   47    48     0     0     0
SMALL
USER_CHARGES

@<TRIPOS>ATOM
      1 C1         16.6010   20.5580   41.8840 C.3       1 TMP2       -0.0850
      2 C2         17.2850   19.2290   41.6960 C.ar      1 TMP2       -0.1310
      3 C3         16.7060   18.0780   42.1970 C.ar      1 TMP2       -0.0790
      4 C4         17.3320   16.8570   42.0270 C.ar      1 TMP2       -0.1710
      5 C5         18.5410   16.7890   41.3520 C.ar      1 TMP2        0.1720
      6 C6         19.1200   17.9450   40.8500 C.ar      1 TMP2       -0.1520
      7 C7         18.4880   19.1620   41.0180 C.ar      1 TMP2       -0.0790
      8 O8         19.1590   15.5890   41.1840 O.3       1 TMP2       -0.3040
      9 H1         15.7640   18.1320   42.7230 H         1 TMP2        0.1140
     10 H2         16.8790   15.9590   42.4190 H         1 TMP2        0.1190
     11 H3         20.0620   17.8940   40.3240 H         1 TMP2        0.1400
     12 H4         18.9370   20.0620   40.6240 H         1 TMP2        0.1100
     13 C9         15.1090   20.3520   41.9360 C.2       1 TMP2        0.5110
     14 H5         16.8480   21.2150   41.0490 H         1 TMP2        0.1000
     15 H6         16.9370   21.0120   42.8160 H         1 TMP2        0.1000
     16 C10        13.0310   20.5280   43.0810 C.ar      1 TMP2        0.1610
     17 N11        14.4160   20.7200   43.0320 N.am      1 TMP2       -0.6820
     18 O12        14.5310   19.8570   40.9920 O.2       1 TMP2       -0.5000
     19 H7         14.8770   21.1170   43.7880 H         1 TMP2        0.4100
     20 C13         9.8970   22.6030   43.4800 C.3       1 TMP2       -0.1120
     21 C14        10.8170   21.4230   43.2980 C.ar      1 TMP2       -0.0660
     22 C15        10.2910   20.1490   43.1790 C.ar      1 TMP2       -0.1420
     23 C16        11.1320   19.0640   43.0110 C.ar      1 TMP2       -0.0630
     24 C17        12.5000   19.2500   42.9620 C.ar      1 TMP2       -0.1290
     25 C18        10.5550   17.6790   42.8810 C.3       1 TMP2       -0.1140
     26 H8          8.8630   22.2570   43.4990 H         1 TMP2        0.0700
     27 H9         10.1290   23.1030   44.4210 H         1 TMP2        0.0660
     28 H10        10.0320   23.3010   42.6540 H         1 TMP2        0.0650
     29 H11         9.2220   20.0020   43.2170 H         1 TMP2        0.1200
     30 H12        13.1560   18.4020   42.8300 H         1 TMP2        0.1360
     31 H13        12.5920   22.6110   43.3340 H         1 TMP2        0.1230
     32 H14        11.3650   16.9590   42.7560 H         1 TMP2        0.0720
     33 H15         9.9890   17.4360   43.7800 H         1 TMP2        0.0670
     34 H16         9.8970   17.6380   42.0140 H         1 TMP2        0.0650
     35 C19        12.1830   21.6160   43.2440 C.ar      1 TMP2       -0.1580
     36 C20        18.8320   14.8510   40.0060 C.3       1 TMP2        0.0300
     37 C21        19.6200   13.5390   39.9900 C.3       1 TMP2       -0.1150
     38 C22        17.3330   14.5460   39.9940 C.3       1 TMP2       -0.1710
     39 C23        19.1880   15.6650   38.7870 C.2       1 TMP2        0.4820
     40 H17        19.3700   12.9760   39.0910 H         1 TMP2        0.0500
     41 H18        20.6880   13.7570   39.9980 H         1 TMP2        0.0780
     42 H19        19.3620   12.9510   40.8710 H         1 TMP2        0.0570
     43 H20        17.0830   13.9830   39.0950 H         1 TMP2        0.0670
     44 H21        17.0750   13.9570   40.8750 H         1 TMP2        0.0720
     45 H22        16.7720   15.4810   40.0040 H         1 TMP2        0.0510
     46 O24        20.2990   15.5680   38.2930 O.co2     1 TMP2       -0.6700
     47 O25        18.3660   16.4200   38.2960 O.co2     1 TMP2       -0.6860
@<TRIPOS>BOND
     1   39   46 1
     2   39   47 2
     3   36   39 1
     4   37   40 1
     5   38   43 1
     6   37   41 1
     7   36   37 1
     8   37   42 1
     9   38   45 1
    10   36   38 1
    11   38   44 1
    12    8   36 1
    13    6   11 1
    14    7   12 1
    15    6    7 ar
    16    5    6 ar
    17   13   18 2
    18    2    7 ar
    19    1   14 1
    20    5    8 1
    21    4    5 ar
    22    1    2 1
    23    2    3 ar
    24    1   13 1
    25    1   15 1
    26   13   17 am
    27   25   34 1
    28    3    4 ar
    29    4   10 1
    30    3    9 1
    31   20   28 1
    32   25   32 1
    33   24   30 1
    34   23   25 1
    35   25   33 1
    36   23   24 ar
    37   16   24 ar
    38   22   23 ar
    39   16   17 1
    40   17   19 1
    41   16   35 ar
    42   22   29 1
    43   21   22 ar
    44   21   35 ar
    45   31   35 1
    46   20   21 1
    47   20   26 1
    48   20   27 1
@<TRIPOS>MOLECULE
header  -22.317
   47    48     0     0     0
SMALL
USER_CHARGES

@<TRIPOS>ATOM
      1 C1         19.0190   18.4730   41.2720 C.3       1 TMP3       -0.0850
      2 C2         17.8610   19.4210   41.4420 C.ar      1 TMP3       -0.1310
      3 C3         17.4130   19.7440   42.7100 C.ar      1 TMP3       -0.0790
      4 C4         16.3500   20.6130   42.8690 C.ar      1 TMP3       -0.1710
      5 C5         15.7340   21.1620   41.7540 C.ar      1 TMP3        0.1720
      6 C6         16.1850   20.8370   40.4830 C.ar      1 TMP3       -0.1520
      7 C7         17.2510   19.9720   40.3300 C.ar      1 TMP3       -0.0790
      8 O8         14.6880   22.0160   41.9070 O.3       1 TMP3       -0.3040
      9 H1         17.8940   19.3160   43.5770 H         1 TMP3        0.1140
     10 H2         16.0010   20.8640   43.8590 H         1 TMP3        0.1190
     11 H3         15.7070   21.2630   39.6140 H         1 TMP3        0.1400
     12 H4         17.6060   19.7210   39.3410 H         1 TMP3        0.1100
     13 C9         18.5030   17.0610   41.1760 C.2       1 TMP3        0.5110
     14 H5         19.6870   18.5570   42.1310 H         1 TMP3        0.1000
     15 H6         19.5640   18.7240   40.3620 H         1 TMP3        0.1000
     16 C10        18.2690   15.0150   39.9820 C.ar      1 TMP3        0.1610
     17 N11        18.7490   16.3270   40.0720 N.am      1 TMP3       -0.6820
     18 O12        17.8660   16.5830   42.0910 O.2       1 TMP3       -0.5000
     19 H7         19.2590   16.7080   39.3400 H         1 TMP3        0.4100
     20 C13        19.2410   11.7490   38.3480 C.3       1 TMP3       -0.1120
     21 C14        18.4880   12.7760   39.1530 C.ar      1 TMP3       -0.0660
     22 C15        17.3200   12.4230   39.8050 C.ar      1 TMP3       -0.1420
     23 C16        16.6260   13.3620   40.5450 C.ar      1 TMP3       -0.0630
     24 C17        17.0980   14.6570   40.6360 C.ar      1 TMP3       -0.1290
     25 C18        15.3540   12.9730   41.2530 C.3       1 TMP3       -0.1140
     26 H8         18.7150   10.7950   38.3920 H         1 TMP3        0.0700
     27 H9         19.3090   12.0790   37.3110 H         1 TMP3        0.0660
     28 H10        20.2440   11.6300   38.7590 H         1 TMP3        0.0650
     29 H11        16.9490   11.4100   39.7350 H         1 TMP3        0.1200
     30 H12        16.5540   15.3900   41.2140 H         1 TMP3        0.1360
     31 H13        19.8810   14.3420   38.7390 H         1 TMP3        0.1230
     32 H14        14.9510   13.8380   41.7790 H         1 TMP3        0.0720
     33 H15        14.6250   12.6210   40.5230 H         1 TMP3        0.0670
     34 H16        15.5640   12.1770   41.9670 H         1 TMP3        0.0650
     35 C19        18.9670   14.0680   39.2440 C.ar      1 TMP3       -0.1580
     36 C20        13.3800   21.4410   41.9430 C.3       1 TMP3        0.0300
     37 C21        13.4590   20.0310   42.5310 C.3       1 TMP3       -0.1150
     38 C22        12.4670   22.3070   42.8140 C.3       1 TMP3       -0.1710
     39 C23        12.8230   21.3730   40.5450 C.2       1 TMP3        0.4820
     40 H17        12.4610   19.5920   42.5590 H         1 TMP3        0.0500
     41 H18        14.1100   19.4140   41.9110 H         1 TMP3        0.0780
     42 H19        13.8620   20.0810   43.5420 H         1 TMP3        0.0570
     43 H20        11.4700   21.8690   42.8420 H         1 TMP3        0.0670
     44 H21        12.8700   22.3560   43.8260 H         1 TMP3        0.0720
     45 H22        12.4110   23.3110   42.3960 H         1 TMP3        0.0510
     46 O24        13.0170   20.3830   39.8590 O.co2     1 TMP3       -0.6700
     47 O25        12.1780   22.3060   40.0980 O.co2     1 TMP3       -0.6860
@<TRIPOS>BOND
     1   20   27 1
     2   20   26 1
     3   20   28 1
     4   20   21 1
     5   31   35 1
     6   21   35 ar
     7   21   22 ar
     8   16   35 ar
     9   17   19 1
    10    7   12 1
    11    6   11 1
    12   22   29 1
    13   22   23 ar
    14   39   46 1
    15   16   17 1
    16   16   24 ar
    17   13   17 am
    18   39   47 2
    19    6    7 ar
    20    2    7 ar
    21    1   15 1
    22    5    6 ar
    23   25   33 1
    24   23   24 ar
    25   23   25 1
    26   36   39 1
    27   24   30 1
    28    1   13 1
    29   13   18 2
    30   25   32 1
    31   25   34 1
    32    1    2 1
    33    1   14 1
    34    2    3 ar
    35    5    8 1
    36    4    5 ar
    37    8   36 1
    38   37   41 1
    39   36   37 1
    40   36   38 1
    41   38   45 1
    42   37   40 1
    43   37   42 1
    44    3    4 ar
    45    3    9 1
    46   38   43 1
    47   38   44 1
    48    4   10 1
@<TRIPOS>MOLECULE
header  -33.598
   47    48     0     0     0
SMALL
USER_CHARGES

@<TRIPOS>ATOM
      1 C1         17.0500   20.0180   42.9990 C.3       1 TMP10      -0.0850
      2 C2         16.3460   20.7650   41.8970 C.ar      1 TMP10      -0.1310
      3 C3         16.5250   20.3830   40.5800 C.ar      1 TMP10      -0.0790
      4 C4         15.8810   21.0670   39.5670 C.ar      1 TMP10      -0.1710
      5 C5         15.0540   22.1380   39.8720 C.ar      1 TMP10       0.1720
      6 C6         14.8750   22.5190   41.1940 C.ar      1 TMP10      -0.1520
      7 C7         15.5170   21.8290   42.2040 C.ar      1 TMP10      -0.0790
      8 O8         14.4190   22.8130   38.8770 O.3       1 TMP10      -0.3040
      9 H1         17.1690   19.5490   40.3430 H         1 TMP10       0.1140
     10 H2         16.0210   20.7680   38.5390 H         1 TMP10       0.1190
     11 H3         14.2320   23.3530   41.4340 H         1 TMP10       0.1400
     12 H4         15.3760   22.1230   43.2330 H         1 TMP10       0.1100
     13 C9         17.2460   18.5810   42.5870 C.2       1 TMP10       0.5110
     14 H5         16.4470   20.0560   43.9070 H         1 TMP10       0.1000
     15 H6         18.0210   20.4770   43.1880 H         1 TMP10       0.1000
     16 C10        16.8860   16.2560   42.9360 C.ar      1 TMP10       0.1610
     17 N11        16.7030   17.5890   43.3200 N.am      1 TMP10      -0.6820
     18 O12        17.8930   18.3190   41.5950 O.2       1 TMP10      -0.5000
     19 H7         16.1860   17.7990   44.1120 H         1 TMP10       0.4100
     20 C13        15.0450   12.9630   43.1710 C.3       1 TMP10      -0.1120
     21 C14        16.0980   13.9920   42.8520 C.ar      1 TMP10      -0.0660
     22 C15        17.2460   13.6190   42.1800 C.ar      1 TMP10      -0.1420
     23 C16        18.2160   14.5600   41.8840 C.ar      1 TMP10      -0.0630
     24 C17        18.0380   15.8770   42.2610 C.ar      1 TMP10      -0.1290
     25 C18        19.4660   14.1490   41.1510 C.3       1 TMP10      -0.1140
     26 H8         15.3650   11.9890   42.8010 H         1 TMP10       0.0700
     27 H9         14.9010   12.9120   44.2510 H         1 TMP10       0.0660
     28 H10        14.1060   13.2430   42.6930 H         1 TMP10       0.0650
     29 H11        17.3890   12.5890   41.8850 H         1 TMP10       0.1200
     30 H12        18.7960   16.6130   42.0300 H         1 TMP10       0.1360
     31 H13        15.0130   15.6010   43.7480 H         1 TMP10       0.1230
     32 H14        20.1070   15.0190   41.0090 H         1 TMP10       0.0720
     33 H15        19.9990   13.3970   41.7350 H         1 TMP10       0.0670
     34 H16        19.1980   13.7330   40.1800 H         1 TMP10       0.0650
     35 C19        15.9120   15.3080   43.2270 C.ar      1 TMP10      -0.1580
     36 C20        13.1250   22.3420   38.4970 C.3       1 TMP10       0.0300
     37 C21        12.0580   23.0470   39.3390 C.3       1 TMP10      -0.1150
     38 C22        12.8870   22.6440   37.0170 C.3       1 TMP10      -0.1710
     39 C23        13.0440   20.8550   38.7260 C.2       1 TMP10       0.4820
     40 H17        11.0710   22.6870   39.0490 H         1 TMP10       0.0500
     41 H18        12.2280   22.8310   40.3950 H         1 TMP10       0.0780
     42 H19        12.1170   24.1230   39.1740 H         1 TMP10       0.0570
     43 H20        11.9000   22.2850   36.7260 H         1 TMP10       0.0670
     44 H21        12.9460   23.7200   36.8510 H         1 TMP10       0.0720
     45 H22        13.6470   22.1420   36.4170 H         1 TMP10       0.0510
     46 O24        12.6610   20.4230   39.8000 O.co2     1 TMP10      -0.6700
     47 O25        13.3610   20.0830   37.8370 O.co2     1 TMP10      -0.6860
@<TRIPOS>BOND
     1   38   45 1
     2   38   43 1
     3   38   44 1
     4   36   38 1
     5   39   47 1
     6   36   39 1
     7    8   36 1
     8   36   37 1
     9    4   10 1
    10   39   46 2
    11    5    8 1
    12   37   40 1
    13   37   42 1
    14   37   41 1
    15    4    5 ar
    16    3    4 ar
    17    5    6 ar
    18   25   34 1
    19    3    9 1
    20    2    3 ar
    21   25   32 1
    22   25   33 1
    23   23   25 1
    24    6   11 1
    25    6    7 ar
    26   13   18 2
    27   22   23 ar
    28   23   24 ar
    29   22   29 1
    30    2    7 ar
    31    1    2 1
    32   24   30 1
    33   21   22 ar
    34    7   12 1
    35   16   24 ar
    36    1   13 1
    37   13   17 am
    38   20   28 1
    39   20   26 1
    40   20   21 1
    41   21   35 ar
    42   16   35 ar
    43   16   17 1
    44    1   15 1
    45    1   14 1
    46   20   27 1
    47   31   35 1
    48   17   19 1
@<TRIPOS>MOLECULE
header  -22.845
   47    48     0     0     0
SMALL
USER_CHARGES

@<TRIPOS>ATOM
      1 C1         19.7930   17.4430   40.3660 C.3       1 TMP11      -0.0850
      2 C2         18.7220   18.4070   40.8070 C.ar      1 TMP11      -0.1310
      3 C3         18.6730   18.8310   42.1220 C.ar      1 TMP11      -0.0790
      4 C4         17.6920   19.7150   42.5290 C.ar      1 TMP11      -0.1710
      5 C5         16.7560   20.1770   41.6160 C.ar      1 TMP11       0.1720
      6 C6         16.8060   19.7500   40.2970 C.ar      1 TMP11      -0.1520
      7 C7         17.7920   18.8700   39.8940 C.ar      1 TMP11      -0.0790
      8 O8         15.7880   21.0450   42.0140 O.3       1 TMP11      -0.3040
      9 H1         19.4030   18.4720   42.8320 H         1 TMP11       0.1140
     10 H2         17.6550   20.0450   43.5560 H         1 TMP11       0.1190
     11 H3         16.0780   20.1080   39.5840 H         1 TMP11       0.1400
     12 H4         17.8350   18.5410   38.8660 H         1 TMP11       0.1100
     13 C9         19.3000   16.0300   40.5410 C.2       1 TMP11       0.5110
     14 H5         20.6880   17.5920   40.9710 H         1 TMP11       0.1000
     15 H6         20.0300   17.6180   39.3170 H         1 TMP11       0.1000
     16 C10        17.7400   14.3030   40.0460 C.ar      1 TMP11       0.1610
     17 N11        18.1980   15.6150   39.8840 N.am      1 TMP11      -0.6820
     18 O12        19.8940   15.2660   41.2720 O.2       1 TMP11      -0.5000
     19 H7         17.7230   16.2260   39.2990 H         1 TMP11       0.4100
     20 C13        18.2340   10.9120   38.4500 C.3       1 TMP11      -0.1120
     21 C14        17.7410   12.0030   39.3640 C.ar      1 TMP11      -0.0660
     22 C15        16.8330   11.7080   40.3650 C.ar      1 TMP11      -0.1420
     23 C16        16.3780   12.7070   41.2060 C.ar      1 TMP11      -0.0630
     24 C17        16.8290   14.0020   41.0500 C.ar      1 TMP11      -0.1290
     25 C18        15.3890   12.3800   42.2950 C.3       1 TMP11      -0.1140
     26 H8         17.7650    9.9680   38.7250 H         1 TMP11       0.0700
     27 H9         17.9780   11.1580   37.4190 H         1 TMP11       0.0660
     28 H10        19.3170   10.8220   38.5440 H         1 TMP11       0.0650
     29 H11        16.4790   10.6950   40.4890 H         1 TMP11       0.1200
     30 H12        16.4720   14.7820   41.7070 H         1 TMP11       0.1360
     31 H13        18.9110   13.5260   38.4270 H         1 TMP11       0.1230
     32 H14        15.1480   13.2860   42.8520 H         1 TMP11       0.0720
     33 H15        14.4800   11.9750   41.8510 H         1 TMP11       0.0670
     34 H16        15.8220   11.6430   42.9720 H         1 TMP11       0.0650
     35 C19        18.1990   13.2970   39.2050 C.ar      1 TMP11      -0.1580
     36 C20        14.5650   20.4810   42.4900 C.3       1 TMP11       0.0300
     37 C21        14.8470   19.1210   43.1330 C.3       1 TMP11      -0.1150
     38 C22        13.9420   21.4170   43.5280 C.3       1 TMP11      -0.1710
     39 C23        13.6110   20.3040   41.3370 C.2       1 TMP11       0.4820
     40 H17        13.9140   18.6910   43.4960 H         1 TMP11       0.0500
     41 H18        15.2910   18.4540   42.3930 H         1 TMP11       0.0780
     42 H19        15.5370   19.2500   43.9660 H         1 TMP11       0.0570
     43 H20        13.0100   20.9870   43.8920 H         1 TMP11       0.0670
     44 H21        14.6320   21.5450   44.3620 H         1 TMP11       0.0720
     45 H22        13.7420   22.3850   43.0710 H         1 TMP11       0.0510
     46 O24        13.9470   20.6300   40.2120 O.co2     1 TMP11      -0.6700
     47 O25        12.5030   19.8330   41.5290 O.co2     1 TMP11      -0.6860
@<TRIPOS>BOND
     1   20   27 1
     2   31   35 1
     3   20   28 1
     4   20   26 1
     5   20   21 1
     6    7   12 1
     7   21   35 ar
     8   16   35 ar
     9   17   19 1
    10    1   15 1
    11   21   22 ar
    12    6   11 1
    13   16   17 1
    14   13   17 am
    15    6    7 ar
    16    2    7 ar
    17   16   24 ar
    18   39   46 2
    19    5    6 ar
    20   22   29 1
    21   22   23 ar
    22    1   13 1
    23    1    2 1
    24    1   14 1
    25   13   18 2
    26    2    3 ar
    27   23   24 ar
    28   24   30 1
    29   23   25 1
    30   39   47 1
    31   36   39 1
    32    5    8 1
    33    4    5 ar
    34   25   33 1
    35    8   36 1
    36    3    4 ar
    37    3    9 1
    38   25   32 1
    39   25   34 1
    40   37   41 1
    41   36   37 1
    42   36   38 1
    43    4   10 1
    44   38   45 1
    45   37   40 1
    46   37   42 1
    47   38   43 1
    48   38   44 1
@<TRIPOS>MOLECULE
header  -22.904
   47    48     0     0     0
SMALL
USER_CHARGES

@<TRIPOS>ATOM
      1 C1         18.5620   18.8920   39.7370 C.3       1 TMP14      -0.0850
      2 C2         18.1960   17.6790   40.5520 C.ar      1 TMP14      -0.1310
      3 C3         18.5130   16.4150   40.0890 C.ar      1 TMP14      -0.0790
      4 C4         18.1780   15.3000   40.8350 C.ar      1 TMP14      -0.1710
      5 C5         17.5240   15.4510   42.0490 C.ar      1 TMP14       0.1720
      6 C6         17.2080   16.7200   42.5110 C.ar      1 TMP14      -0.1520
      7 C7         17.5500   17.8320   41.7650 C.ar      1 TMP14      -0.0790
      8 O8         17.1930   14.3560   42.7840 O.3       1 TMP14      -0.3040
      9 H1         19.0220   16.2980   39.1440 H         1 TMP14       0.1140
     10 H2         18.4250   14.3140   40.4720 H         1 TMP14       0.1190
     11 H3         16.6990   16.8400   43.4560 H         1 TMP14       0.1400
     12 H4         17.3070   18.8200   42.1260 H         1 TMP14       0.1100
     13 C9         17.4320   19.2260   38.7980 C.2       1 TMP14       0.5110
     14 H5         19.4630   18.6830   39.1590 H         1 TMP14       0.1000
     15 H6         18.7440   19.7360   40.4030 H         1 TMP14       0.1000
     16 C10        15.7720   20.7370   38.0070 C.ar      1 TMP14       0.1610
     17 N11        16.8220   20.4260   38.8780 N.am      1 TMP14      -0.6820
     18 O12        17.0690   18.4170   37.9720 O.2       1 TMP14      -0.5000
     19 H7         17.1120   21.0750   39.5390 H         1 TMP14       0.4100
     20 C13        12.6350   22.8440   37.9890 C.3       1 TMP14      -0.1120
     21 C14        13.7280   21.9050   37.5500 C.ar      1 TMP14      -0.0660
     22 C15        13.6960   21.3500   36.2840 C.ar      1 TMP14      -0.1420
     23 C16        14.6980   20.4890   35.8770 C.ar      1 TMP14      -0.0630
     24 C17        15.7360   20.1810   36.7340 C.ar      1 TMP14      -0.1290
     25 C18        14.6580   19.8860   34.4970 C.3       1 TMP14      -0.1140
     26 H8         11.9090   22.9580   37.1840 H         1 TMP14       0.0700
     27 H9         12.1380   22.4350   38.8700 H         1 TMP14       0.0660
     28 H10        13.0650   23.8150   38.2320 H         1 TMP14       0.0650
     29 H11        12.8850   21.5890   35.6120 H         1 TMP14       0.1200
     30 H12        16.5180   19.5080   36.4160 H         1 TMP14       0.1360
     31 H13        14.7940   22.0420   39.3970 H         1 TMP14       0.1230
     32 H14        15.5230   19.2380   34.3580 H         1 TMP14       0.0720
     33 H15        13.7450   19.3000   34.3830 H         1 TMP14       0.0670
     34 H16        14.6740   20.6810   33.7520 H         1 TMP14       0.0650
     35 C19        14.7660   21.6050   38.4110 C.ar      1 TMP14      -0.1580
     36 C20        16.3200   13.4050   42.1730 C.3       1 TMP14       0.0300
     37 C21        15.4860   12.7120   43.2520 C.3       1 TMP14      -0.1150
     38 C22        15.3900   14.1220   41.1920 C.3       1 TMP14      -0.1710
     39 C23        17.1360   12.3770   41.4330 C.2       1 TMP14       0.4820
     40 H17        14.8200   11.9860   42.7870 H         1 TMP14       0.0500
     41 H18        16.1480   12.2020   43.9520 H         1 TMP14       0.0780
     42 H19        14.8950   13.4550   43.7890 H         1 TMP14       0.0570
     43 H20        14.7250   13.3950   40.7260 H         1 TMP14       0.0670
     44 H21        14.8000   14.8650   41.7280 H         1 TMP14       0.0720
     45 H22        15.9850   14.6150   40.4230 H         1 TMP14       0.0510
     46 O24        18.3530   12.4530   41.4280 O.co2     1 TMP14      -0.6700
     47 O25        16.5800   11.4700   40.8380 O.co2     1 TMP14      -0.6860
@<TRIPOS>BOND
     1   25   34 1
     2   25   32 1
     3   25   33 1
     4   23   25 1
     5   22   29 1
     6   22   23 ar
     7   23   24 ar
     8   21   22 ar
     9   24   30 1
    10   16   24 ar
    11   20   26 1
    12   20   21 1
    13   21   35 ar
    14   13   18 2
    15   20   28 1
    16   20   27 1
    17   16   35 ar
    18   16   17 1
    19   31   35 1
    20   13   17 am
    21    1   13 1
    22   17   19 1
    23    3    9 1
    24    1   14 1
    25    1   15 1
    26    1    2 1
    27    2    3 ar
    28    3    4 ar
    29   38   45 1
    30    4   10 1
    31    2    7 ar
    32   38   43 1
    33    4    5 ar
    34   39   47 2
    35   38   44 1
    36   36   38 1
    37   39   46 1
    38   36   39 1
    39    7   12 1
    40    6    7 ar
    41    5    6 ar
    42    5    8 1
    43    8   36 1
    44   36   37 1
    45    6   11 1
    46   37   40 1
    47   37   42 1
    48   37   41 1
@<TRIPOS>MOLECULE
header  -24.358
   47    48     0     0     0
SMALL
USER_CHARGES

@<TRIPOS>ATOM
      1 C1         18.5660   17.7460   40.3350 C.3       1 TMP16      -0.0850
      2 C2         17.7140   18.8180   39.7060 C.ar      1 TMP16      -0.1310
      3 C3         17.2350   19.8610   40.4770 C.ar      1 TMP16      -0.0790
      4 C4         16.4540   20.8450   39.9030 C.ar      1 TMP16      -0.1710
      5 C5         16.1510   20.7860   38.5510 C.ar      1 TMP16       0.1720
      6 C6         16.6330   19.7390   37.7790 C.ar      1 TMP16      -0.1520
      7 C7         17.4180   18.7600   38.3570 C.ar      1 TMP16      -0.0790
      8 O8         15.3820   21.7530   37.9840 O.3       1 TMP16      -0.3040
      9 H1         17.4720   19.9060   41.5300 H         1 TMP16       0.1140
     10 H2         16.0810   21.6590   40.5060 H         1 TMP16       0.1190
     11 H3         16.3980   19.6910   36.7260 H         1 TMP16       0.1400
     12 H4         17.7960   17.9470   37.7550 H         1 TMP16       0.1100
     13 C9         17.6820   16.6340   40.8400 C.2       1 TMP16       0.5110
     14 H5         19.1270   18.1700   41.1680 H         1 TMP16       0.1000
     15 H6         19.2590   17.3500   39.5930 H         1 TMP16       0.1000
     16 C10        16.8630   15.2830   42.6180 C.ar      1 TMP16       0.1610
     17 N11        17.6830   16.3150   42.1500 N.am      1 TMP16      -0.6820
     18 O12        16.9700   16.0270   40.0680 O.2       1 TMP16      -0.5000
     19 H7         18.2520   16.8000   42.7670 H         1 TMP16       0.4100
     20 C13        14.0330   14.8090   45.0780 C.3       1 TMP16      -0.1120
     21 C14        15.0850   14.5240   44.0380 C.ar      1 TMP16      -0.0660
     22 C15        15.2420   13.2410   43.5460 C.ar      1 TMP16      -0.1420
     23 C16        16.2060   12.9770   42.5910 C.ar      1 TMP16      -0.0630
     24 C17        17.0160   13.9930   42.1260 C.ar      1 TMP16      -0.1290
     25 C18        16.3720   11.5770   42.0570 C.3       1 TMP16      -0.1140
     26 H8         13.5020   13.8870   45.3200 H         1 TMP16       0.0700
     27 H9         14.5080   15.2000   45.9780 H         1 TMP16       0.0660
     28 H10        13.3270   15.5430   44.6900 H         1 TMP16       0.0650
     29 H11        14.6080   12.4440   43.9080 H         1 TMP16       0.1200
     30 H12        17.7700   13.7860   41.3800 H         1 TMP16       0.1360
     31 H13        15.7650   16.5480   43.9550 H         1 TMP16       0.1230
     32 H14        17.1740   11.5630   41.3190 H         1 TMP16       0.0720
     33 H15        16.6210   10.9020   42.8770 H         1 TMP16       0.0670
     34 H16        15.4430   11.2530   41.5900 H         1 TMP16       0.0650
     35 C19        15.8900   15.5460   43.5740 C.ar      1 TMP16      -0.1580
     36 C20        13.9690   21.5370   37.9770 C.3       1 TMP16       0.0300
     37 C21        13.2760   22.7230   37.3010 C.3       1 TMP16      -0.1150
     38 C22        13.6520   20.2540   37.2050 C.3       1 TMP16      -0.1710
     39 C23        13.4750   21.4070   39.3940 C.2       1 TMP16       0.4820
     40 H17        12.1990   22.5580   37.2970 H         1 TMP16       0.0500
     41 H18        13.5020   23.6370   37.8510 H         1 TMP16       0.0780
     42 H19        13.6340   22.8180   36.2770 H         1 TMP16       0.0570
     43 H20        12.5750   20.0910   37.2000 H         1 TMP16       0.0670
     44 H21        14.0110   20.3490   36.1800 H         1 TMP16       0.0720
     45 H22        14.1460   19.4100   37.6860 H         1 TMP16       0.0510
     46 O24        13.1160   22.3970   40.0080 O.co2     1 TMP16      -0.6700
     47 O25        13.4330   20.3110   39.9270 O.co2     1 TMP16      -0.6860
@<TRIPOS>BOND
     1   38   44 1
     2   37   42 1
     3    6   11 1
     4   38   43 1
     5   38   45 1
     6   36   38 1
     7   37   40 1
     8   37   41 1
     9   36   37 1
    10    7   12 1
    11    6    7 ar
    12    5    6 ar
    13    8   36 1
    14   36   39 1
    15    5    8 1
    16    2    7 ar
    17    4    5 ar
    18   39   47 1
    19   39   46 2
    20    1   15 1
    21    1    2 1
    22    2    3 ar
    23    3    4 ar
    24    4   10 1
    25   13   18 2
    26    1   13 1
    27    1   14 1
    28    3    9 1
    29   13   17 am
    30   25   32 1
    31   24   30 1
    32   25   34 1
    33   23   25 1
    34   25   33 1
    35   23   24 ar
    36   16   24 ar
    37   16   17 1
    38   17   19 1
    39   22   23 ar
    40   16   35 ar
    41   22   29 1
    42   21   22 ar
    43   31   35 1
    44   21   35 ar
    45   20   21 1
    46   20   28 1
    47   20   26 1
    48   20   27 1
@<TRIPOS>MOLECULE
header  -26.448
   47    48     0     0     0
SMALL
USER_CHARGES

@<TRIPOS>ATOM
      1 C1         18.8930   18.0340   39.7710 C.3       1 TMP17      -0.0850
      2 C2         17.8830   19.0820   39.3780 C.ar      1 TMP17      -0.1310
      3 C3         17.2340   19.8140   40.3550 C.ar      1 TMP17      -0.0790
      4 C4         16.3070   20.7750   39.9980 C.ar      1 TMP17      -0.1710
      5 C5         16.0290   21.0040   38.6590 C.ar      1 TMP17       0.1720
      6 C6         16.6820   20.2680   37.6810 C.ar      1 TMP17      -0.1520
      7 C7         17.6120   19.3120   38.0420 C.ar      1 TMP17      -0.0790
      8 O8         15.1170   21.9490   38.3050 O.3       1 TMP17      -0.3040
      9 H1         17.4510   19.6350   41.3980 H         1 TMP17       0.1140
     10 H2         15.8000   21.3460   40.7610 H         1 TMP17       0.1190
     11 H3         16.4680   20.4450   36.6370 H         1 TMP17       0.1400
     12 H4         18.1230   18.7420   37.2810 H         1 TMP17       0.1100
     13 C9         18.1990   16.7090   39.9490 C.2       1 TMP17       0.5110
     14 H5         19.3700   18.3220   40.7080 H         1 TMP17       0.1000
     15 H6         19.6480   17.9470   38.9890 H         1 TMP17       0.1000
     16 C10        16.5760   15.3470   41.0320 C.ar      1 TMP17       0.1610
     17 N11        17.2200   16.5780   40.8670 N.am      1 TMP17      -0.6820
     18 O12        18.5200   15.7590   39.2650 O.2       1 TMP17      -0.5000
     19 H7         16.9630   17.3370   41.4130 H         1 TMP17       0.4100
     20 C13        13.1830   14.0430   42.0660 C.3       1 TMP17      -0.1120
     21 C14        14.6180   14.0890   41.6130 C.ar      1 TMP17      -0.0660
     22 C15        15.3010   12.9130   41.3590 C.ar      1 TMP17      -0.1420
     23 C16        16.6190   12.9520   40.9430 C.ar      1 TMP17      -0.0630
     24 C17        17.2580   14.1650   40.7790 C.ar      1 TMP17      -0.1290
     25 C18        17.3590   11.6680   40.6680 C.3       1 TMP17      -0.1140
     26 H8         12.8580   13.0050   42.1410 H         1 TMP17       0.0700
     27 H9         13.0930   14.5230   43.0410 H         1 TMP17       0.0660
     28 H10        12.5560   14.5680   41.3450 H         1 TMP17       0.0650
     29 H11        14.8040   11.9630   41.4880 H         1 TMP17       0.1200
     30 H12        18.2870   14.1930   40.4530 H         1 TMP17       0.1360
     31 H13        14.7150   16.2240   41.6390 H         1 TMP17       0.1230
     32 H14        18.3770   11.8950   40.3520 H         1 TMP17       0.0720
     33 H15        17.3860   11.0630   41.5760 H         1 TMP17       0.0670
     34 H16        16.8490   11.1160   39.8790 H         1 TMP17       0.0650
     35 C19        15.2510   15.3060   41.4450 C.ar      1 TMP17      -0.1580
     36 C20        13.7590   21.5230   38.1770 C.3       1 TMP17       0.0300
     37 C21        12.8880   22.7150   37.7750 C.3       1 TMP17      -0.1150
     38 C22        13.6630   20.4360   37.1040 C.3       1 TMP17      -0.1710
     39 C23        13.2800   20.9730   39.4960 C.2       1 TMP17       0.4820
     40 H17        11.8520   22.3910   37.6780 H         1 TMP17       0.0500
     41 H18        12.9560   23.4890   38.5400 H         1 TMP17       0.0780
     42 H19        13.2350   23.1140   36.8230 H         1 TMP17       0.0570
     43 H20        12.6270   20.1130   37.0070 H         1 TMP17       0.0670
     44 H21        14.0100   20.8360   36.1510 H         1 TMP17       0.0720
     45 H22        14.2840   19.5880   37.3900 H         1 TMP17       0.0510
     46 O24        12.7590   21.7120   40.3120 O.co2     1 TMP17      -0.6700
     47 O25        13.4140   19.7860   39.7450 O.co2     1 TMP17      -0.6860
@<TRIPOS>BOND
     1   38   44 1
     2    6   11 1
     3   37   42 1
     4   38   43 1
     5   38   45 1
     6   36   38 1
     7    7   12 1
     8   37   40 1
     9    6    7 ar
    10    5    6 ar
    11   36   37 1
    12   37   41 1
    13    2    7 ar
    14    8   36 1
    15   36   39 1
    16    5    8 1
    17    4    5 ar
    18    1   15 1
    19   13   18 2
    20    1    2 1
    21    2    3 ar
    22   39   47 1
    23   39   46 2
    24    1   13 1
    25    1   14 1
    26   25   34 1
    27   13   17 am
    28    3    4 ar
    29    4   10 1
    30   25   32 1
    31    3    9 1
    32   24   30 1
    33   23   25 1
    34   25   33 1
    35   23   24 ar
    36   16   24 ar
    37   16   17 1
    38   17   19 1
    39   22   23 ar
    40   16   35 ar
    41   20   28 1
    42   22   29 1
    43   21   22 ar
    44   21   35 ar
    45   31   35 1
    46   20   21 1
    47   20   26 1
    48   20   27 1
@<TRIPOS>MOLECULE
header  -25.005
   47    48     0     0     0
SMALL
USER_CHARGES

@<TRIPOS>ATOM
      1 C1         18.8020   17.7900   39.7930 C.3       1 TMP21      -0.0850
      2 C2         17.8020   18.8870   39.5320 C.ar      1 TMP21      -0.1310
      3 C3         17.2560   19.5890   40.5900 C.ar      1 TMP21      -0.0790
      4 C4         16.3380   20.5950   40.3530 C.ar      1 TMP21      -0.1710
      5 C5         15.9660   20.8990   39.0520 C.ar      1 TMP21       0.1720
      6 C6         16.5160   20.1920   37.9920 C.ar      1 TMP21      -0.1520
      7 C7         17.4370   19.1920   38.2340 C.ar      1 TMP21      -0.0790
      8 O8         15.0630   21.8870   38.8160 O.3       1 TMP21      -0.3040
      9 H1         17.5470   19.3520   41.6030 H         1 TMP21       0.1140
     10 H2         15.9120   21.1430   41.1790 H         1 TMP21       0.1190
     11 H3         16.2270   20.4270   36.9780 H         1 TMP21       0.1400
     12 H4         17.8680   18.6440   37.4090 H         1 TMP21       0.1100
     13 C9         18.0790   16.4800   39.9630 C.2       1 TMP21       0.5110
     14 H5         19.3610   18.0170   40.7030 H         1 TMP21       0.1000
     15 H6         19.4910   17.7190   38.9520 H         1 TMP21       0.1000
     16 C10        16.4980   15.1160   41.1050 C.ar      1 TMP21       0.1610
     17 N11        17.1700   16.3330   40.9480 N.am      1 TMP21      -0.6820
     18 O12        18.3130   15.5560   39.2130 O.2       1 TMP21      -0.5000
     19 H7         16.9820   17.0720   41.5490 H         1 TMP21       0.4100
     20 C13        13.1520   13.8670   42.3420 C.3       1 TMP21      -0.1120
     21 C14        14.5490   13.8920   41.7790 C.ar      1 TMP21      -0.0660
     22 C15        15.1690   12.7090   41.4170 C.ar      1 TMP21      -0.1420
     23 C16        16.4520   12.7280   40.9000 C.ar      1 TMP21      -0.0630
     24 C17        17.1180   13.9280   40.7440 C.ar      1 TMP21      -0.1290
     25 C18        17.1230   11.4370   40.5080 C.3       1 TMP21      -0.1140
     26 H8         12.7990   12.8370   42.3930 H         1 TMP21       0.0700
     27 H9         13.1550   14.3010   43.3420 H         1 TMP21       0.0660
     28 H10        12.4910   14.4470   41.6970 H         1 TMP21       0.0650
     29 H11        14.6510   11.7700   41.5400 H         1 TMP21       0.1200
     30 H12        18.1190   13.9410   40.3400 H         1 TMP21       0.1360
     31 H13        14.7220   16.0190   41.8980 H         1 TMP21       0.1230
     32 H14        18.1210   11.6490   40.1240 H         1 TMP21       0.0720
     33 H15        17.2000   10.7880   41.3810 H         1 TMP21       0.0670
     34 H16        16.5350   10.9410   39.7370 H         1 TMP21       0.0650
     35 C19        15.2090   15.0950   41.6200 C.ar      1 TMP21      -0.1580
     36 C20        13.6850   21.5110   38.7760 C.3       1 TMP21       0.0300
     37 C21        12.8270   22.7470   38.5000 C.3       1 TMP21      -0.1150
     38 C22        13.4690   20.4820   37.6640 C.3       1 TMP21      -0.1710
     39 C23        13.2900   20.9100   40.1000 C.2       1 TMP21       0.4820
     40 H17        11.7760   22.4600   38.4700 H         1 TMP21       0.0500
     41 H18        12.9810   23.4800   39.2930 H         1 TMP21       0.0780
     42 H19        13.1120   23.1820   37.5430 H         1 TMP21       0.0570
     43 H20        12.4180   20.1960   37.6340 H         1 TMP21       0.0670
     44 H21        13.7550   20.9170   36.7060 H         1 TMP21       0.0720
     45 H22        14.0800   19.6020   37.8600 H         1 TMP21       0.0510
     46 O24        12.8600   21.6230   40.9890 O.co2     1 TMP21      -0.6700
     47 O25        13.4020   19.7090   40.2820 O.co2     1 TMP21      -0.6860
@<TRIPOS>BOND
     1   38   44 1
     2    6   11 1
     3    7   12 1
     4   37   42 1
     5   38   43 1
     6   38   45 1
     7   36   38 1
     8    6    7 ar
     9    5    6 ar
    10    2    7 ar
    11   37   40 1
    12   36   37 1
    13   37   41 1
    14    8   36 1
    15   36   39 1
    16    5    8 1
    17    1   15 1
    18    4    5 ar
    19   13   18 2
    20    1    2 1
    21    2    3 ar
    22   25   34 1
    23    1   13 1
    24    1   14 1
    25   13   17 am
    26   39   47 1
    27   39   46 2
    28   25   32 1
    29   24   30 1
    30    3    4 ar
    31    4   10 1
    32   23   25 1
    33   25   33 1
    34    3    9 1
    35   23   24 ar
    36   16   24 ar
    37   22   23 ar
    38   16   17 1
    39   17   19 1
    40   16   35 ar
    41   22   29 1
    42   21   22 ar
    43   21   35 ar
    44   31   35 1
    45   20   28 1
    46   20   21 1
    47   20   26 1
    48   20   27 1
@<TRIPOS>MOLECULE
header  -28.187
   47    48     0     0     0
SMALL
USER_CHARGES

@<TRIPOS>ATOM
      1 C1         18.5100   18.5560   40.1520 C.3       1 TMP23      -0.0850
      2 C2         17.4560   19.5660   39.7790 C.ar      1 TMP23      -0.1310
      3 C3         16.7620   20.2370   40.7690 C.ar      1 TMP23      -0.0790
      4 C4         15.7950   21.1630   40.4290 C.ar      1 TMP23      -0.1710
      5 C5         15.5210   21.4200   39.0940 C.ar      1 TMP23       0.1720
      6 C6         16.2190   20.7450   38.1030 C.ar      1 TMP23      -0.1520
      7 C7         17.1890   19.8240   38.4470 C.ar      1 TMP23      -0.0790
      8 O8         14.5690   22.3300   38.7570 O.3       1 TMP23      -0.3040
      9 H1         16.9760   20.0370   41.8080 H         1 TMP23       0.1140
     10 H2         15.2530   21.6870   41.2020 H         1 TMP23       0.1190
     11 H3         16.0070   20.9420   37.0620 H         1 TMP23       0.1400
     12 H4         17.7350   19.3010   37.6760 H         1 TMP23       0.1100
     13 C9         17.8780   17.1940   40.2830 C.2       1 TMP23       0.5110
     14 H5         18.9630   18.8380   41.1040 H         1 TMP23       0.1000
     15 H6         19.2770   18.5280   39.3780 H         1 TMP23       0.1000
     16 C10        17.3490   15.2690   41.5770 C.ar      1 TMP23       0.1610
     17 N11        17.9360   16.5330   41.4560 N.am      1 TMP23      -0.6820
     18 O12        17.3160   16.6930   39.3320 O.2       1 TMP23      -0.5000
     19 H7         18.3860   16.9340   42.2170 H         1 TMP23       0.4100
     20 C13        14.6650   13.5760   43.6300 C.3       1 TMP23      -0.1120
     21 C14        15.7620   13.8070   42.6220 C.ar      1 TMP23      -0.0660
     22 C15        16.1900   12.7690   41.8160 C.ar      1 TMP23      -0.1420
     23 C16        17.1950   12.9770   40.8900 C.ar      1 TMP23      -0.0630
     24 C17        17.7760   14.2240   40.7680 C.ar      1 TMP23      -0.1290
     25 C18        17.6580   11.8420   40.0130 C.3       1 TMP23      -0.1140
     26 H8         14.3390   12.5370   43.5810 H         1 TMP23       0.0700
     27 H9         15.0400   13.7920   44.6310 H         1 TMP23       0.0660
     28 H10        13.8240   14.2320   43.4080 H         1 TMP23       0.0650
     29 H11        15.7370   11.7920   41.9100 H         1 TMP23       0.1200
     30 H12        18.5620   14.3850   40.0450 H         1 TMP23       0.1360
     31 H13        15.9990   15.8690   43.1290 H         1 TMP23       0.1230
     32 H14        18.4500   12.1930   39.3530 H         1 TMP23       0.0720
     33 H15        18.0370   11.0310   40.6370 H         1 TMP23       0.0670
     34 H16        16.8210   11.4780   39.4160 H         1 TMP23       0.0650
     35 C19        16.3360   15.0570   42.5020 C.ar      1 TMP23      -0.1580
     36 C20        13.2340   21.8450   38.6000 C.3       1 TMP23       0.0300
     37 C21        12.3130   22.5560   39.5940 C.3       1 TMP23      -0.1150
     38 C22        12.7550   22.1210   37.1740 C.3       1 TMP23      -0.1710
     39 C23        13.2050   20.3610   38.8610 C.2       1 TMP23       0.4820
     40 H17        11.2950   22.1860   39.4750 H         1 TMP23       0.0500
     41 H18        12.6550   22.3590   40.6110 H         1 TMP23       0.0780
     42 H19        12.3360   23.6300   39.4060 H         1 TMP23       0.0570
     43 H20        11.7370   21.7520   37.0540 H         1 TMP23       0.0670
     44 H21        12.7770   23.1950   36.9840 H         1 TMP23       0.0720
     45 H22        13.4100   21.6150   36.4660 H         1 TMP23       0.0510
     46 O24        13.0060   19.9440   39.9900 O.co2     1 TMP23      -0.6700
     47 O25        13.3790   19.5770   37.9440 O.co2     1 TMP23      -0.6860
@<TRIPOS>BOND
     1   38   45 1
     2   38   44 1
     3   38   43 1
     4    6   11 1
     5   36   38 1
     6    7   12 1
     7   39   47 2
     8    6    7 ar
     9    5    6 ar
    10    2    7 ar
    11    8   36 1
    12   36   39 1
    13   36   37 1
    14    5    8 1
    15   39   46 1
    16    4    5 ar
    17   13   18 2
    18   25   32 1
    19    1   15 1
    20   37   42 1
    21   25   34 1
    22   37   40 1
    23   37   41 1
    24    1    2 1
    25    2    3 ar
    26   25   33 1
    27   23   25 1
    28   24   30 1
    29    1   13 1
    30    1   14 1
    31   13   17 am
    32    3    4 ar
    33    4   10 1
    34   23   24 ar
    35   16   24 ar
    36    3    9 1
    37   22   23 ar
    38   16   17 1
    39   17   19 1
    40   16   35 ar
    41   22   29 1
    42   21   22 ar
    43   21   35 ar
    44   31   35 1
    45   20   21 1
    46   20   28 1
    47   20   26 1
    48   20   27 1
@<TRIPOS>MOLECULE
header  -24.791
   47    48     0     0     0
SMALL
USER_CHARGES

@<TRIPOS>ATOM
      1 C1         19.3790   17.7310   39.9540 C.3       1 TMP24      -0.0850
      2 C2         18.4700   18.6380   39.1660 C.ar      1 TMP24      -0.1310
      3 C3         17.5680   19.4540   39.8250 C.ar      1 TMP24      -0.0790
      4 C4         16.7330   20.2870   39.1040 C.ar      1 TMP24      -0.1710
      5 C5         16.8000   20.3030   37.7190 C.ar      1 TMP24       0.1720
      6 C6         17.7050   19.4840   37.0610 C.ar      1 TMP24      -0.1520
      7 C7         18.5420   18.6570   37.7860 C.ar      1 TMP24      -0.0790
      8 O8         15.9780   21.1200   37.0080 O.3       1 TMP24      -0.3040
      9 H1         17.5170   19.4410   40.9040 H         1 TMP24       0.1140
     10 H2         16.0290   20.9230   39.6200 H         1 TMP24       0.1190
     11 H3         17.7590   19.4940   35.9820 H         1 TMP24       0.1400
     12 H4         19.2490   18.0220   37.2730 H         1 TMP24       0.1100
     13 C9         18.7060   16.3990   40.1590 C.2       1 TMP24       0.5110
     14 H5         19.5910   18.1830   40.9240 H         1 TMP24       0.1000
     15 H6         20.3110   17.5880   39.4080 H         1 TMP24       0.1000
     16 C10        18.6550   14.0370   39.8740 C.ar      1 TMP24       0.1610
     17 N11        19.2800   15.2740   39.6850 N.am      1 TMP24      -0.6820
     18 O12        17.6480   16.3370   40.7490 O.2       1 TMP24      -0.5000
     19 H7         20.1260   15.3230   39.2140 H         1 TMP24       0.4100
     20 C13        18.4010   10.6950   38.1280 C.3       1 TMP24      -0.1120
     21 C14        18.2100   11.8000   39.1350 C.ar      1 TMP24      -0.0660
     22 C15        17.4180   11.5910   40.2490 C.ar      1 TMP24      -0.1420
     23 C16        17.2420   12.6010   41.1760 C.ar      1 TMP24      -0.0630
     24 C17        17.8570   13.8230   40.9920 C.ar      1 TMP24      -0.1290
     25 C18        16.3770   12.3690   42.3870 C.3       1 TMP24      -0.1140
     26 H8         17.8360    9.8170   38.4410 H         1 TMP24       0.0700
     27 H9         18.0430   11.0280   37.1530 H         1 TMP24       0.0660
     28 H10        19.4590   10.4430   38.0600 H         1 TMP24       0.0650
     29 H11        16.9350   10.6360   40.3950 H         1 TMP24       0.1200
     30 H12        17.7190   14.6130   41.7160 H         1 TMP24       0.1360
     31 H13        19.4560   13.1800   38.0810 H         1 TMP24       0.1230
     32 H14        16.3560   13.2720   42.9980 H         1 TMP24       0.0720
     33 H15        15.3630   12.1240   42.0680 H         1 TMP24       0.0670
     34 H16        16.7830   11.5430   42.9710 H         1 TMP24       0.0650
     35 C19        18.8330   13.0180   38.9480 C.ar      1 TMP24      -0.1580
     36 C20        14.7130   20.5850   36.6150 C.3       1 TMP24       0.0300
     37 C21        14.2700   21.2350   35.3020 C.3       1 TMP24      -0.1150
     38 C22        14.8360   19.0730   36.4200 C.3       1 TMP24      -0.1710
     39 C23        13.6930   20.8730   37.6870 C.2       1 TMP24       0.4820
     40 H17        13.3040   20.8270   35.0030 H         1 TMP24       0.0500
     41 H18        14.1830   22.3120   35.4420 H         1 TMP24       0.0780
     42 H19        15.0080   21.0280   34.5270 H         1 TMP24       0.0570
     43 H20        13.8700   18.6660   36.1210 H         1 TMP24       0.0670
     44 H21        15.5740   18.8650   35.6450 H         1 TMP24       0.0720
     45 H22        15.1510   18.6100   37.3550 H         1 TMP24       0.0510
     46 O24        13.0410   21.9030   37.6480 O.co2     1 TMP24      -0.6700
     47 O25        13.5190   20.0750   38.5930 O.co2     1 TMP24      -0.6860
@<TRIPOS>BOND
     1   37   42 1
     2   37   40 1
     3   37   41 1
     4   36   37 1
     5   38   44 1
     6    6   11 1
     7   38   43 1
     8   36   38 1
     9   38   45 1
    10    8   36 1
    11   36   39 1
    12    5    8 1
    13    5    6 ar
    14    6    7 ar
    15   20   27 1
    16    7   12 1
    17   39   46 2
    18   39   47 1
    19    4    5 ar
    20    2    7 ar
    21   20   28 1
    22   31   35 1
    23   20   26 1
    24   20   21 1
    25   21   35 ar
    26   16   35 ar
    27    4   10 1
    28    3    4 ar
    29   21   22 ar
    30    2    3 ar
    31    1    2 1
    32   17   19 1
    33    1   15 1
    34   16   17 1
    35   13   17 am
    36    3    9 1
    37   16   24 ar
    38    1   13 1
    39    1   14 1
    40   13   18 2
    41   22   29 1
    42   22   23 ar
    43   23   24 ar
    44   24   30 1
    45   23   25 1
    46   25   33 1
    47   25   34 1
    48   25   32 1
@<TRIPOS>MOLECULE
header  -30.079
   47    48     0     0     0
SMALL
USER_CHARGES

@<TRIPOS>ATOM
      1 C1         18.9850   18.1680   40.1660 C.3       1 TMP26      -0.0850
      2 C2         18.0830   19.0720   40.9680 C.ar      1 TMP26      -0.1310
      3 C3         18.2470   19.1720   42.3370 C.ar      1 TMP26      -0.0790
      4 C4         17.4220   19.9990   43.0750 C.ar      1 TMP26      -0.1710
      5 C5         16.4280   20.7280   42.4400 C.ar      1 TMP26       0.1720
      6 C6         16.2650   20.6260   41.0660 C.ar      1 TMP26      -0.1520
      7 C7         17.0970   19.8020   40.3320 C.ar      1 TMP26      -0.0790
      8 O8         15.6130   21.5420   43.1630 O.3       1 TMP26      -0.3040
      9 H1         19.0220   18.6040   42.8310 H         1 TMP26       0.1140
     10 H2         17.5500   20.0770   44.1440 H         1 TMP26       0.1190
     11 H3         15.4920   21.1930   40.5690 H         1 TMP26       0.1400
     12 H4         16.9730   19.7250   39.2620 H         1 TMP26       0.1100
     13 C9         18.3770   16.7920   40.0880 C.2       1 TMP26       0.5110
     14 H5         19.9610   18.1070   40.6500 H         1 TMP26       0.1000
     15 H6         19.1020   18.5720   39.1610 H         1 TMP26       0.1000
     16 C10        18.4810   14.4530   40.5070 C.ar      1 TMP26       0.1610
     17 N11        19.0460   15.7300   40.5800 N.am      1 TMP26      -0.6820
     18 O12        17.2850   16.6390   39.5820 O.2       1 TMP26      -0.5000
     19 H7         19.9190   15.8520   40.9850 H         1 TMP26       0.4100
     20 C13        19.2810   11.0830   38.9930 C.3       1 TMP26      -0.1120
     21 C14        18.5730   12.1810   39.7430 C.ar      1 TMP26      -0.0660
     22 C15        17.3620   11.9250   40.3610 C.ar      1 TMP26      -0.1420
     23 C16        16.7090   12.9300   41.0520 C.ar      1 TMP26      -0.0630
     24 C17        17.2650   14.1920   41.1260 C.ar      1 TMP26      -0.1290
     25 C18        15.3900   12.6470   41.7220 C.3       1 TMP26      -0.1140
     26 H8         18.6900   10.1690   39.0420 H         1 TMP26       0.0700
     27 H9         19.4070   11.3780   37.9510 H         1 TMP26       0.0660
     28 H10        20.2590   10.9080   39.4420 H         1 TMP26       0.0650
     29 H11        16.9260   10.9400   40.3040 H         1 TMP26       0.1200
     30 H12        16.7540   14.9760   41.6650 H         1 TMP26       0.1360
     31 H13        20.0840   13.6380   39.3390 H         1 TMP26       0.1230
     32 H14        15.0300   13.5520   42.2130 H         1 TMP26       0.0720
     33 H15        14.6640   12.3260   40.9750 H         1 TMP26       0.0670
     34 H16        15.5210   11.8600   42.4640 H         1 TMP26       0.0650
     35 C19        19.1360   13.4400   39.8180 C.ar      1 TMP26      -0.1580
     36 C20        16.0400   22.8940   43.3400 C.3       1 TMP26       0.0300
     37 C21        14.9960   23.8410   42.7430 C.3       1 TMP26      -0.1150
     38 C22        16.1990   23.1880   44.8330 C.3       1 TMP26      -0.1710
     39 C23        17.3600   23.1000   42.6430 C.2       1 TMP26       0.4820
     40 H17        15.3210   24.8720   42.8770 H         1 TMP26       0.0500
     41 H18        14.8820   23.6320   41.6790 H         1 TMP26       0.0780
     42 H19        14.0410   23.6920   43.2460 H         1 TMP26       0.0570
     43 H20        16.5240   24.2190   44.9680 H         1 TMP26       0.0670
     44 H21        15.2440   23.0390   45.3360 H         1 TMP26       0.0720
     45 H22        16.9430   22.5130   45.2580 H         1 TMP26       0.0510
     46 O24        17.3860   23.4590   41.4780 O.co2     1 TMP26      -0.6700
     47 O25        18.4030   22.9080   43.2450 O.co2     1 TMP26      -0.6860
@<TRIPOS>BOND
     1   20   27 1
     2   20   26 1
     3   20   28 1
     4   20   21 1
     5    1   15 1
     6    7   12 1
     7   31   35 1
     8   13   18 2
     9   21   35 ar
    10   21   22 ar
    11   16   35 ar
    12    1   13 1
    13   13   17 am
    14    1   14 1
    15    1    2 1
    16   22   29 1
    17    2    7 ar
    18    6    7 ar
    19   22   23 ar
    20   16   17 1
    21   16   24 ar
    22    6   11 1
    23   17   19 1
    24    2    3 ar
    25   25   33 1
    26   23   24 ar
    27   23   25 1
    28    5    6 ar
    29   24   30 1
    30   39   46 2
    31   37   41 1
    32   25   32 1
    33   25   34 1
    34    3    9 1
    35    3    4 ar
    36    4    5 ar
    37    5    8 1
    38   39   47 1
    39   36   39 1
    40   37   40 1
    41   37   42 1
    42   36   37 1
    43    4   10 1
    44    8   36 1
    45   36   38 1
    46   38   43 1
    47   38   45 1
    48   38   44 1
@<TRIPOS>MOLECULE
header  -32.918
   47    48     0     0     0
SMALL
USER_CHARGES

@<TRIPOS>ATOM
      1 C1         19.4290   17.7140   39.6060 C.3       1 TMP27      -0.0850
      2 C2         18.4520   18.6890   40.2100 C.ar      1 TMP27      -0.1310
      3 C3         18.4750   18.9350   41.5710 C.ar      1 TMP27      -0.0790
      4 C4         17.5800   19.8290   42.1280 C.ar      1 TMP27      -0.1710
      5 C5         16.6590   20.4790   41.3200 C.ar      1 TMP27       0.1720
      6 C6         16.6380   20.2300   39.9550 C.ar      1 TMP27      -0.1520
      7 C7         17.5380   19.3400   39.4030 C.ar      1 TMP27      -0.0790
      8 O8         15.7760   21.3580   41.8660 O.3       1 TMP27      -0.3040
      9 H1         19.1930   18.4290   42.1990 H         1 TMP27       0.1140
     10 H2         17.5980   20.0200   43.1900 H         1 TMP27       0.1190
     11 H3         15.9210   20.7350   39.3250 H         1 TMP27       0.1400
     12 H4         17.5250   19.1490   38.3400 H         1 TMP27       0.1100
     13 C9         18.8290   16.3320   39.6120 C.2       1 TMP27       0.5110
     14 H5         20.3500   17.7120   40.1910 H         1 TMP27       0.1000
     15 H6         19.6500   18.0100   38.5800 H         1 TMP27       0.1000
     16 C10        17.9140   14.4730   40.7820 C.ar      1 TMP27       0.1610
     17 N11        18.4720   15.7560   40.7770 N.am      1 TMP27      -0.6820
     18 O12        18.6640   15.7370   38.5670 O.2       1 TMP27      -0.5000
     19 H7         18.6030   16.2310   41.6130 H         1 TMP27       0.4100
     20 C13        15.4820   12.4500   42.8490 C.3       1 TMP27      -0.1120
     21 C14        16.4620   12.8430   41.7760 C.ar      1 TMP27      -0.0660
     22 C15        16.8120   11.9350   40.7930 C.ar      1 TMP27      -0.1420
     23 C16        17.7110   12.2930   39.8060 C.ar      1 TMP27      -0.0630
     24 C17        18.2640   13.5580   39.7980 C.ar      1 TMP27      -0.1290
     25 C18        18.0900   11.2990   38.7370 C.3       1 TMP27      -0.1140
     26 H8         15.1620   11.4200   42.6910 H         1 TMP27       0.0700
     27 H9         15.9570   12.5370   43.8260 H         1 TMP27       0.0660
     28 H10        14.6140   13.1090   42.8090 H         1 TMP27       0.0650
     29 H11        16.3820   10.9450   40.7980 H         1 TMP27       0.1200
     30 H12        18.9660   13.8360   39.0260 H         1 TMP27       0.1360
     31 H13        16.7300   14.8230   42.5350 H         1 TMP27       0.1230
     32 H14        18.8040   11.7560   38.0530 H         1 TMP27       0.0720
     33 H15        18.5420   10.4210   39.2010 H         1 TMP27       0.0670
     34 H16        17.1990   11.0000   38.1870 H         1 TMP27       0.0650
     35 C19        17.0070   14.1130   41.7700 C.ar      1 TMP27      -0.1580
     36 C20        14.5250   20.8290   42.3100 C.3       1 TMP27       0.0300
     37 C21        14.7140   19.3790   42.7570 C.3       1 TMP27      -0.1150
     38 C22        14.0090   21.6630   43.4850 C.3       1 TMP27      -0.1710
     39 C23        13.5280   20.8820   41.1810 C.2       1 TMP27       0.4820
     40 H17        13.7600   18.9760   43.0970 H         1 TMP27       0.0500
     41 H18        15.0820   18.7850   41.9200 H         1 TMP27       0.0780
     42 H19        15.4350   19.3410   43.5730 H         1 TMP27       0.0570
     43 H20        13.0560   21.2600   43.8250 H         1 TMP27       0.0670
     44 H21        14.7310   21.6240   44.3020 H         1 TMP27       0.0720
     45 H22        13.8750   22.6960   43.1670 H         1 TMP27       0.0510
     46 O24        13.4230   19.9380   40.4170 O.co2     1 TMP27      -0.6700
     47 O25        12.8270   21.8680   41.0320 O.co2     1 TMP27      -0.6860
@<TRIPOS>BOND
     1   25   32 1
     2   25   34 1
     3    7   12 1
     4   13   18 2
     5    1   15 1
     6   25   33 1
     7   23   25 1
     8   24   30 1
     9    6   11 1
    10    6    7 ar
    11    2    7 ar
    12    1   13 1
    13    1   14 1
    14    1    2 1
    15   13   17 am
    16   23   24 ar
    17   16   24 ar
    18   22   23 ar
    19    5    6 ar
    20    2    3 ar
    21   39   46 1
    22   16   17 1
    23   17   19 1
    24   16   35 ar
    25   22   29 1
    26   21   22 ar
    27   39   47 2
    28   36   39 1
    29    5    8 1
    30    4    5 ar
    31    3    4 ar
    32    3    9 1
    33   21   35 ar
    34   31   35 1
    35   20   21 1
    36    8   36 1
    37   37   41 1
    38    4   10 1
    39   36   37 1
    40   36   38 1
    41   20   26 1
    42   37   40 1
    43   37   42 1
    44   20   28 1
    45   20   27 1
    46   38   45 1
    47   38   43 1
    48   38   44 1
@<TRIPOS>MOLECULE
header  -17.982
   47    48     0     0     0
SMALL
USER_CHARGES

@<TRIPOS>ATOM
      1 C1         17.2370   16.8000   43.5650 C.3       1 TMP31      -0.0850
      2 C2         17.0160   18.1520   42.9380 C.ar      1 TMP31      -0.1310
      3 C3         16.1230   19.0400   43.5090 C.ar      1 TMP31      -0.0790
      4 C4         15.9180   20.2810   42.9350 C.ar      1 TMP31      -0.1710
      5 C5         16.6090   20.6340   41.7860 C.ar      1 TMP31       0.1720
      6 C6         17.5040   19.7410   41.2150 C.ar      1 TMP31      -0.1520
      7 C7         17.7100   18.5040   41.7960 C.ar      1 TMP31      -0.0790
      8 O8         16.4080   21.8530   41.2190 O.3       1 TMP31      -0.3040
      9 H1         15.5850   18.7640   44.4040 H         1 TMP31       0.1140
     10 H2         15.2200   20.9730   43.3810 H         1 TMP31       0.1190
     11 H3         18.0440   20.0130   40.3200 H         1 TMP31       0.1400
     12 H4         18.4100   17.8100   41.3540 H         1 TMP31       0.1100
     13 C9         16.2640   15.8090   42.9810 C.2       1 TMP31       0.5110
     14 H5         17.0800   16.8690   44.6430 H         1 TMP31       0.1000
     15 H6         18.2560   16.4700   43.3670 H         1 TMP31       0.1000
     16 C10        14.4820   14.2530   43.2370 C.ar      1 TMP31       0.1610
     17 N11        15.3850   15.1730   43.7810 N.am      1 TMP31      -0.6820
     18 O12        16.2710   15.5830   41.7890 O.2       1 TMP31      -0.5000
     19 H7         15.3790   15.3540   44.7340 H         1 TMP31       0.4100
     20 C13        10.9950   14.2280   41.7780 C.3       1 TMP31      -0.1120
     21 C14        12.3470   13.7670   42.2580 C.ar      1 TMP31      -0.0660
     22 C15        12.6960   12.4330   42.1630 C.ar      1 TMP31      -0.1420
     23 C16        13.9360   12.0060   42.6020 C.ar      1 TMP31      -0.0630
     24 C17        14.8300   12.9120   43.1390 C.ar      1 TMP31      -0.1290
     25 C18        14.3120   10.5510   42.4960 C.3       1 TMP31      -0.1140
     26 H8         10.4360   13.3760   41.3950 H         1 TMP31       0.0700
     27 H9         10.4500   14.6790   42.6070 H         1 TMP31       0.0660
     28 H10        11.1240   14.9640   40.9840 H         1 TMP31       0.0650
     29 H11        11.9990   11.7220   41.7440 H         1 TMP31       0.1200
     30 H12        15.7980   12.5780   43.4820 H         1 TMP31       0.1360
     31 H13        12.9670   15.7220   42.8600 H         1 TMP31       0.1230
     32 H14        15.3180   10.4050   42.8890 H         1 TMP31       0.0720
     33 H15        13.6070    9.9500   43.0710 H         1 TMP31       0.0670
     34 H16        14.2830   10.2420   41.4510 H         1 TMP31       0.0650
     35 C19        13.2380   14.6790   42.7900 C.ar      1 TMP31      -0.1580
     36 C20        15.3760   21.9490   40.2360 C.3       1 TMP31       0.0300
     37 C21        15.3010   23.3860   39.7150 C.3       1 TMP31      -0.1150
     38 C22        15.6870   21.0020   39.0750 C.3       1 TMP31      -0.1710
     39 C23        14.0560   21.5700   40.8560 C.2       1 TMP31       0.4820
     40 H17        14.5130   23.4600   38.9660 H         1 TMP31       0.0500
     41 H18        15.0790   24.0610   40.5430 H         1 TMP31       0.0780
     42 H19        16.2550   23.6620   39.2680 H         1 TMP31       0.0570
     43 H20        14.8990   21.0770   38.3250 H         1 TMP31       0.0670
     44 H21        16.6420   21.2780   38.6270 H         1 TMP31       0.0720
     45 H22        15.7410   19.9790   39.4450 H         1 TMP31       0.0510
     46 O24        13.3590   22.4220   41.3770 O.co2     1 TMP31      -0.6700
     47 O25        13.6850   20.4080   40.8350 O.co2     1 TMP31      -0.6860
@<TRIPOS>BOND
     1   38   43 1
     2   38   44 1
     3   37   40 1
     4   38   45 1
     5   36   38 1
     6   37   42 1
     7   36   37 1
     8   37   41 1
     9   36   39 1
    10    8   36 1
    11    6   11 1
    12   39   47 1
    13   39   46 2
    14   20   28 1
    15    5    6 ar
    16    6    7 ar
    17    5    8 1
    18    7   12 1
    19   20   26 1
    20   25   34 1
    21   22   29 1
    22   20   21 1
    23   20   27 1
    24    4    5 ar
    25   13   18 2
    26    2    7 ar
    27   21   22 ar
    28   22   23 ar
    29   21   35 ar
    30   23   25 1
    31   25   32 1
    32   25   33 1
    33   23   24 ar
    34   31   35 1
    35   16   35 ar
    36    4   10 1
    37    3    4 ar
    38    2    3 ar
    39    1    2 1
    40    1   13 1
    41   13   17 am
    42   16   24 ar
    43   24   30 1
    44   16   17 1
    45    1   15 1
    46    3    9 1
    47    1   14 1
    48   17   19 1
@<TRIPOS>MOLECULE
header  -10.814
   47    48     0     0     0
SMALL
USER_CHARGES

@<TRIPOS>ATOM
      1 C1         19.5720   16.7670   39.6490 C.3       1 TMP35      -0.0850
      2 C2         18.8890   17.5810   40.7180 C.ar      1 TMP35      -0.1310
      3 C3         18.1830   16.9470   41.7240 C.ar      1 TMP35      -0.0790
      4 C4         17.5560   17.6910   42.7050 C.ar      1 TMP35      -0.1710
      5 C5         17.6350   19.0750   42.6790 C.ar      1 TMP35       0.1720
      6 C6         18.3440   19.7090   41.6690 C.ar      1 TMP35      -0.1520
      7 C7         18.9740   18.9600   40.6940 C.ar      1 TMP35      -0.0790
      8 O8         17.0180   19.8100   43.6430 O.3       1 TMP35      -0.3040
      9 H1         18.1230   15.8680   41.7430 H         1 TMP35       0.1140
     10 H2         17.0050   17.1950   43.4890 H         1 TMP35       0.1190
     11 H3         18.4070   20.7870   41.6470 H         1 TMP35       0.1400
     12 H4         19.5290   19.4540   39.9100 H         1 TMP35       0.1100
     13 C9         18.8070   15.4870   39.4270 C.2       1 TMP35       0.5110
     14 H5         20.5880   16.5320   39.9650 H         1 TMP35       0.1000
     15 H6         19.6020   17.3370   38.7210 H         1 TMP35       0.1000
     16 C10        18.7010   13.1090   39.4200 C.ar      1 TMP35       0.1610
     17 N11        19.4110   14.2980   39.6260 N.am      1 TMP35      -0.6820
     18 O12        17.6490   15.5270   39.0700 O.2       1 TMP35      -0.5000
     19 H7         20.3370   14.2660   39.9130 H         1 TMP35       0.4100
     20 C13        19.3860    9.5480   38.3590 C.3       1 TMP35      -0.1120
     21 C14        18.6640   10.7930   38.8050 C.ar      1 TMP35      -0.0660
     22 C15        17.2970   10.7610   39.0110 C.ar      1 TMP35      -0.1420
     23 C16        16.6300   11.9010   39.4210 C.ar      1 TMP35      -0.0630
     24 C17        17.3280   13.0750   39.6260 C.ar      1 TMP35      -0.1290
     25 C18        15.1400   11.8620   39.6440 C.3       1 TMP35      -0.1140
     26 H8         18.6710    8.7320   38.2490 H         1 TMP35       0.0700
     27 H9         19.8760    9.7340   37.4030 H         1 TMP35       0.0660
     28 H10        20.1350    9.2750   39.1040 H         1 TMP35       0.0650
     29 H11        16.7480    9.8450   38.8510 H         1 TMP35       0.1200
     30 H12        16.8060   13.9650   39.9460 H         1 TMP35       0.1360
     31 H13        20.4360   11.9850   38.8570 H         1 TMP35       0.1230
     32 H14        14.7940   12.8470   39.9610 H         1 TMP35       0.0720
     33 H15        14.6410   11.5850   38.7160 H         1 TMP35       0.0670
     34 H16        14.9070   11.1290   40.4160 H         1 TMP35       0.0650
     35 C19        19.3680   11.9620   39.0140 C.ar      1 TMP35      -0.1580
     36 C20        15.6690   20.2080   43.3900 C.3       1 TMP35       0.0300
     37 C21        14.7980   18.9640   43.2010 C.3       1 TMP35      -0.1150
     38 C22        15.1480   21.0200   44.5770 C.3       1 TMP35      -0.1710
     39 C23        15.6180   21.0520   42.1430 C.2       1 TMP35       0.4820
     40 H17        13.7700   19.2680   43.0090 H         1 TMP35       0.0500
     41 H18        15.1700   18.3860   42.3550 H         1 TMP35       0.0780
     42 H19        14.8350   18.3540   44.1030 H         1 TMP35       0.0570
     43 H20        14.1180   21.3230   44.3850 H         1 TMP35       0.0670
     44 H21        15.1840   20.4090   45.4800 H         1 TMP35       0.0720
     45 H22        15.7690   21.9060   44.7130 H         1 TMP35       0.0510
     46 O24        15.4510   20.5250   41.0570 O.co2     1 TMP35      -0.6700
     47 O25        15.7460   22.2620   42.2200 O.co2     1 TMP35      -0.6860
@<TRIPOS>BOND
     1   20   27 1
     2   20   26 1
     3   20   21 1
     4   20   28 1
     5   25   33 1
     6    1   15 1
     7   21   22 ar
     8   21   35 ar
     9   22   29 1
    10   31   35 1
    11   22   23 ar
    12   16   35 ar
    13   13   18 2
    14   16   17 1
    15   16   24 ar
    16   23   24 ar
    17   23   25 1
    18   13   17 am
    19    1   13 1
    20   17   19 1
    21   24   30 1
    22   25   32 1
    23   25   34 1
    24    1   14 1
    25    1    2 1
    26    7   12 1
    27    2    7 ar
    28    6    7 ar
    29    2    3 ar
    30   39   46 2
    31    6   11 1
    32    5    6 ar
    33    3    9 1
    34    3    4 ar
    35   39   47 1
    36   36   39 1
    37   37   41 1
    38    4    5 ar
    39    5    8 1
    40    4   10 1
    41   37   40 1
    42   36   37 1
    43   37   42 1
    44    8   36 1
    45   36   38 1
    46   38   43 1
    47   38   45 1
    48   38   44 1
@<TRIPOS>MOLECULE
header  -26.749
   47    48     0     0     0
SMALL
USER_CHARGES

@<TRIPOS>ATOM
      1 C1         18.1260   19.3360   40.4090 C.3       1 TMP36      -0.0850
      2 C2         17.0510   19.9010   39.5170 C.ar      1 TMP36      -0.1310
      3 C3         16.0700   20.7160   40.0500 C.ar      1 TMP36      -0.0790
      4 C4         15.0820   21.2360   39.2350 C.ar      1 TMP36      -0.1710
      5 C5         15.0770   20.9380   37.8800 C.ar      1 TMP36       0.1720
      6 C6         16.0620   20.1190   37.3480 C.ar      1 TMP36      -0.1520
      7 C7         17.0510   19.6070   38.1660 C.ar      1 TMP36      -0.0790
      8 O8         14.1060   21.4460   37.0760 O.3       1 TMP36      -0.3040
      9 H1         16.0750   20.9480   41.1050 H         1 TMP36       0.1140
     10 H2         14.3170   21.8720   39.6520 H         1 TMP36       0.1190
     11 H3         16.0600   19.8860   36.2930 H         1 TMP36       0.1400
     12 H4         17.8200   18.9730   37.7510 H         1 TMP36       0.1100
     13 C9         17.6760   18.0090   40.9610 C.2       1 TMP36       0.5110
     14 H5         18.3150   20.0260   41.2320 H         1 TMP36       0.1000
     15 H6         19.0410   19.1980   39.8330 H         1 TMP36       0.1000
     16 C10        16.1400   16.7020   42.2230 C.ar      1 TMP36       0.1610
     17 N11        16.5580   17.9340   41.7110 N.am      1 TMP36      -0.6820
     18 O12        18.3180   17.0060   40.7300 O.2       1 TMP36      -0.5000
     19 H7         16.0440   18.7360   41.8960 H         1 TMP36       0.4100
     20 C13        14.2730   15.3690   45.2280 C.3       1 TMP36      -0.1120
     21 C14        15.0300   15.4280   43.9260 C.ar      1 TMP36      -0.0660
     22 C15        15.3130   14.2640   43.2370 C.ar      1 TMP36      -0.1420
     23 C16        16.0070   14.3140   42.0430 C.ar      1 TMP36      -0.0630
     24 C17        16.4210   15.5300   41.5340 C.ar      1 TMP36      -0.1290
     25 C18        16.3130   13.0420   41.2950 C.3       1 TMP36      -0.1140
     26 H8         14.0380   14.3300   45.4640 H         1 TMP36       0.0700
     27 H9         14.8840   15.7940   46.0240 H         1 TMP36       0.0660
     28 H10        13.3480   15.9380   45.1360 H         1 TMP36       0.0650
     29 H11        14.9900   13.3120   43.6320 H         1 TMP36       0.1200
     30 H12        16.9640   15.5690   40.6010 H         1 TMP36       0.1360
     31 H13        15.2120   17.5580   43.9570 H         1 TMP36       0.1230
     32 H14        16.8620   13.2790   40.3840 H         1 TMP36       0.0720
     33 H15        16.9170   12.3880   41.9240 H         1 TMP36       0.0670
     34 H16        15.3810   12.5390   41.0370 H         1 TMP36       0.0650
     35 C19        15.4370   16.6480   43.4210 C.ar      1 TMP36      -0.1580
     36 C20        12.9180   20.6670   36.9200 C.3       1 TMP36       0.0300
     37 C21        11.9500   21.3950   35.9860 C.3       1 TMP36      -0.1150
     38 C22        13.2770   19.3050   36.3210 C.3       1 TMP36      -0.1710
     39 C23        12.2670   20.4700   38.2640 C.2       1 TMP36       0.4820
     40 H17        11.0440   20.8010   35.8670 H         1 TMP36       0.0500
     41 H18        11.6950   22.3650   36.4130 H         1 TMP36       0.0780
     42 H19        12.4210   21.5390   35.0140 H         1 TMP36       0.0570
     43 H20        12.3710   18.7110   36.2020 H         1 TMP36       0.0670
     44 H21        13.7480   19.4480   35.3480 H         1 TMP36       0.0720
     45 H22        13.9670   18.7860   36.9860 H         1 TMP36       0.0510
     46 O24        11.4440   21.2720   38.6670 O.co2     1 TMP36      -0.6700
     47 O25        12.5650   19.5050   38.9500 O.co2     1 TMP36      -0.6860
@<TRIPOS>BOND
     1   37   42 1
     2   38   44 1
     3   37   40 1
     4   37   41 1
     5   36   37 1
     6   38   43 1
     7    6   11 1
     8   36   38 1
     9   38   45 1
    10    8   36 1
    11   36   39 1
    12    5    8 1
    13    5    6 ar
    14    6    7 ar
    15    7   12 1
    16    4    5 ar
    17    2    7 ar
    18   39   46 2
    19   39   47 1
    20    4   10 1
    21    3    4 ar
    22    2    3 ar
    23    1    2 1
    24    1   15 1
    25    3    9 1
    26   25   32 1
    27    1   13 1
    28    1   14 1
    29   24   30 1
    30   13   18 2
    31   13   17 am
    32   25   34 1
    33   25   33 1
    34   23   25 1
    35   23   24 ar
    36   16   24 ar
    37   17   19 1
    38   16   17 1
    39   22   23 ar
    40   16   35 ar
    41   22   29 1
    42   21   22 ar
    43   21   35 ar
    44   31   35 1
    45   20   21 1
    46   20   28 1
    47   20   26 1
    48   20   27 1
@<TRIPOS>MOLECULE
header  -28.508
   47    48     0     0     0
SMALL
USER_CHARGES

@<TRIPOS>ATOM
      1 C1         19.1590   15.8740   40.1820 C.3       1 TMP37      -0.0850
      2 C2         18.6670   17.2430   40.5740 C.ar      1 TMP37      -0.1310
      3 C3         18.8460   17.6970   41.8680 C.ar      1 TMP37      -0.0790
      4 C4         18.3960   18.9520   42.2300 C.ar      1 TMP37      -0.1710
      5 C5         17.7640   19.7560   41.2940 C.ar      1 TMP37       0.1720
      6 C6         17.5850   19.2990   39.9970 C.ar      1 TMP37      -0.1520
      7 C7         18.0420   18.0460   39.6380 C.ar      1 TMP37      -0.0790
      8 O8         17.3190   20.9910   41.6480 O.3       1 TMP37      -0.3040
      9 H1         19.3390   17.0690   42.5960 H         1 TMP37       0.1140
     10 H2         18.5360   19.3050   43.2410 H         1 TMP37       0.1190
     11 H3         17.0930   19.9240   39.2660 H         1 TMP37       0.1400
     12 H4         17.9070   17.6910   38.6270 H         1 TMP37       0.1100
     13 C9         18.0690   14.8610   40.4210 C.2       1 TMP37       0.5110
     14 H5         20.0320   15.6150   40.7830 H         1 TMP37       0.1000
     15 H6         19.4300   15.8740   39.1270 H         1 TMP37       0.1000
     16 C10        16.5590   13.7450   41.8830 C.ar      1 TMP37       0.1610
     17 N11        17.5710   14.6850   41.6610 N.am      1 TMP37      -0.6820
     18 O12        17.6390   14.2040   39.4970 O.2       1 TMP37      -0.5000
     19 H7         17.9150   15.2110   42.4010 H         1 TMP37       0.4100
     20 C13        13.0040   13.6580   43.1630 C.3       1 TMP37      -0.1120
     21 C14        14.3360   13.2190   42.6100 C.ar      1 TMP37      -0.0660
     22 C15        14.5580   11.8850   42.3220 C.ar      1 TMP37      -0.1420
     23 C16        15.7790   11.4790   41.8150 C.ar      1 TMP37      -0.0630
     24 C17        16.7790   12.4050   41.5940 C.ar      1 TMP37      -0.1290
     25 C18        16.0170   10.0230   41.5030 C.3       1 TMP37      -0.1140
     26 H8         12.3520   12.7910   43.2700 H         1 TMP37       0.0700
     27 H9         13.1510   14.1250   44.1370 H         1 TMP37       0.0660
     28 H10        12.5460   14.3750   42.4810 H         1 TMP37       0.0650
     29 H11        13.7770   11.1590   42.4940 H         1 TMP37       0.1200
     30 H12        17.7330   12.0870   41.1980 H         1 TMP37       0.1360
     31 H13        15.1550   15.1930   42.6090 H         1 TMP37       0.1230
     32 H14        17.0270    9.8960   41.1150 H         1 TMP37       0.0720
     33 H15        15.9000    9.4330   42.4110 H         1 TMP37       0.0670
     34 H16        15.2970    9.6900   40.7560 H         1 TMP37       0.0650
     35 C19        15.3310   14.1510   42.3880 C.ar      1 TMP37      -0.1580
     36 C20        15.9830   21.0810   42.1470 C.3       1 TMP37       0.0300
     37 C21        15.6130   19.7760   42.8530 C.3       1 TMP37      -0.1150
     38 C22        15.8860   22.2440   43.1380 C.3       1 TMP37      -0.1710
     39 C23        15.0340   21.3200   41.0000 C.2       1 TMP37       0.4820
     40 H17        14.5940   19.8450   43.2340 H         1 TMP37       0.0500
     41 H18        15.6820   18.9480   42.1470 H         1 TMP37       0.0780
     42 H19        16.3000   19.6040   43.6810 H         1 TMP37       0.0570
     43 H20        14.8680   22.3120   43.5180 H         1 TMP37       0.0670
     44 H21        16.5730   22.0710   43.9670 H         1 TMP37       0.0720
     45 H22        16.1500   23.1730   42.6350 H         1 TMP37       0.0510
     46 O24        14.5350   20.3730   40.4160 O.co2     1 TMP37      -0.6700
     47 O25        14.7650   22.4580   40.6570 O.co2     1 TMP37      -0.6860
@<TRIPOS>BOND
     1    7   12 1
     2    1   15 1
     3    6   11 1
     4   13   18 2
     5    6    7 ar
     6    2    7 ar
     7    5    6 ar
     8    1   13 1
     9    1    2 1
    10    1   14 1
    11   39   46 1
    12   13   17 am
    13    2    3 ar
    14   39   47 2
    15   25   34 1
    16   36   39 1
    17   25   32 1
    18   24   30 1
    19    5    8 1
    20    4    5 ar
    21   23   25 1
    22   25   33 1
    23   23   24 ar
    24   16   24 ar
    25    8   36 1
    26   16   17 1
    27   17   19 1
    28   22   23 ar
    29    3    4 ar
    30    3    9 1
    31   16   35 ar
    32   36   37 1
    33   36   38 1
    34   37   41 1
    35    4   10 1
    36   22   29 1
    37   21   22 ar
    38   31   35 1
    39   21   35 ar
    40   20   28 1
    41   20   21 1
    42   38   45 1
    43   37   40 1
    44   37   42 1
    45   38   43 1
    46   38   44 1
    47   20   26 1
    48   20   27 1
@<TRIPOS>MOLECULE
header  -13.421
   47    48     0     0     0
SMALL
USER_CHARGES

@<TRIPOS>ATOM
      1 C1         19.8350   16.2620   38.9650 C.3       1 TMP38      -0.0850
      2 C2         19.3650   16.9700   40.2090 C.ar      1 TMP38      -0.1310
      3 C3         19.2150   16.2660   41.3900 C.ar      1 TMP38      -0.0790
      4 C4         18.7840   16.9140   42.5320 C.ar      1 TMP38      -0.1710
      5 C5         18.5030   18.2710   42.4930 C.ar      1 TMP38       0.1720
      6 C6         18.6550   18.9750   41.3070 C.ar      1 TMP38      -0.1520
      7 C7         19.0910   18.3250   40.1690 C.ar      1 TMP38      -0.0790
      8 O8         18.0770   18.9100   43.6150 O.3       1 TMP38      -0.3040
      9 H1         19.4340   15.2090   41.4190 H         1 TMP38       0.1140
     10 H2         18.6660   16.3630   43.4530 H         1 TMP38       0.1190
     11 H3         18.4360   20.0330   41.2740 H         1 TMP38       0.1400
     12 H4         19.2130   18.8740   39.2470 H         1 TMP38       0.1100
     13 C9         19.3840   14.8230   39.0050 C.2       1 TMP38       0.5110
     14 H5         20.9230   16.2990   38.9140 H         1 TMP38       0.1000
     15 H6         19.4130   16.7500   38.0870 H         1 TMP38       0.1000
     16 C10        17.6520   13.1960   39.1080 C.ar      1 TMP38       0.1610
     17 N11        18.0700   14.5310   39.0700 N.am      1 TMP38      -0.6820
     18 O12        20.2040   13.9300   38.9800 O.2       1 TMP38      -0.5000
     19 H7         17.4150   15.2450   39.0900 H         1 TMP38       0.4100
     20 C13        14.7980   11.1600   40.5200 C.3       1 TMP38      -0.1120
     21 C14        16.0700   11.5340   39.8040 C.ar      1 TMP38      -0.0660
     22 C15        16.8250   10.5570   39.1820 C.ar      1 TMP38      -0.1420
     23 C16        17.9930   10.8960   38.5240 C.ar      1 TMP38      -0.0630
     24 C17        18.4080   12.2130   38.4850 C.ar      1 TMP38      -0.1290
     25 C18        18.8130    9.8270   37.8480 C.3       1 TMP38      -0.1140
     26 H8         14.6410   10.0840   40.4460 H         1 TMP38       0.0700
     27 H9         14.8760   11.4450   41.5700 H         1 TMP38       0.0660
     28 H10        13.9570   11.6820   40.0640 H         1 TMP38       0.0650
     29 H11        16.5020    9.5270   39.2120 H         1 TMP38       0.1200
     30 H12        19.3210   12.4760   37.9700 H         1 TMP38       0.1360
     31 H13        15.8850   13.6170   40.2460 H         1 TMP38       0.1230
     32 H14        19.6900   10.2800   37.3860 H         1 TMP38       0.0720
     33 H15        19.1310    9.0920   38.5870 H         1 TMP38       0.0670
     34 H16        18.2110    9.3360   37.0830 H         1 TMP38       0.0650
     35 C19        16.4770   12.8540   39.7640 C.ar      1 TMP38      -0.1580
     36 C20        16.6670   18.9570   43.8400 C.3       1 TMP38       0.0300
     37 C21        16.2410   17.7350   44.6560 C.3       1 TMP38      -0.1150
     38 C22        16.3150   20.2320   44.6100 C.3       1 TMP38      -0.1710
     39 C23        15.9460   18.9530   42.5170 C.2       1 TMP38       0.4820
     40 H17        15.1660   17.7700   44.8280 H         1 TMP38       0.0500
     41 H18        16.4910   16.8260   44.1080 H         1 TMP38       0.0780
     42 H19        16.7630   17.7370   45.6130 H         1 TMP38       0.0570
     43 H20        15.2400   20.2670   44.7820 H         1 TMP38       0.0670
     44 H21        16.8370   20.2340   45.5670 H         1 TMP38       0.0720
     45 H22        16.6200   21.1020   44.0290 H         1 TMP38       0.0510
     46 O24        15.6230   17.8970   42.0020 O.co2     1 TMP38      -0.6700
     47 O25        15.6860   20.0070   41.9620 O.co2     1 TMP38      -0.6860
@<TRIPOS>BOND
     1   25   34 1
     2   25   32 1
     3   23   25 1
     4   25   33 1
     5   24   30 1
     6    1   15 1
     7   23   24 ar
     8   16   24 ar
     9   22   23 ar
    10    1   14 1
    11    1   13 1
    12    1    2 1
    13   13   18 2
    14   13   17 am
    15   17   19 1
    16   16   17 1
    17   16   35 ar
    18   22   29 1
    19   21   22 ar
    20    7   12 1
    21   21   35 ar
    22   31   35 1
    23   20   21 1
    24   20   28 1
    25    2    7 ar
    26    6    7 ar
    27    2    3 ar
    28   20   26 1
    29   20   27 1
    30    6   11 1
    31    5    6 ar
    32    3    9 1
    33    3    4 ar
    34   39   47 1
    35   39   46 2
    36    4    5 ar
    37    5    8 1
    38   36   39 1
    39    4   10 1
    40    8   36 1
    41   36   38 1
    42   36   37 1
    43   38   45 1
    44   37   41 1
    45   38   43 1
    46   38   44 1
    47   37   40 1
    48   37   42 1
@<TRIPOS>MOLECULE
header  -20.670
   47    48     0     0     0
SMALL
USER_CHARGES

@<TRIPOS>ATOM
      1 C1         16.0620   20.8870   42.1630 C.3       1 TMP41      -0.0850
      2 C2         16.9140   19.6520   42.0260 C.ar      1 TMP41      -0.1310
      3 C3         17.3700   19.2620   40.7810 C.ar      1 TMP41      -0.0790
      4 C4         18.1520   18.1290   40.6520 C.ar      1 TMP41      -0.1710
      5 C5         18.4780   17.3840   41.7750 C.ar      1 TMP41       0.1720
      6 C6         18.0200   17.7770   43.0240 C.ar      1 TMP41      -0.1520
      7 C7         17.2430   18.9130   43.1480 C.ar      1 TMP41      -0.0790
      8 O8         19.2460   16.2690   41.6520 O.3       1 TMP41      -0.3040
      9 H1         17.1160   19.8440   39.9070 H         1 TMP41       0.1140
     10 H2         18.5070   17.8260   39.6790 H         1 TMP41       0.1190
     11 H3         18.2720   17.1980   43.9000 H         1 TMP41       0.1400
     12 H4         16.8890   19.2220   44.1200 H         1 TMP41       0.1100
     13 C9         15.2610   21.0870   40.9020 C.2       1 TMP41       0.5110
     14 H5         16.7020   21.7540   42.3280 H         1 TMP41       0.1000
     15 H6         15.3840   20.7690   43.0090 H         1 TMP41       0.1000
     16 C10        13.1710   21.2830   39.7820 C.ar      1 TMP41       0.1610
     17 N11        13.9140   21.0970   40.9540 N.am      1 TMP41      -0.6820
     18 O12        15.8280   21.2380   39.8400 O.2       1 TMP41      -0.5000
     19 H7         13.4600   20.9770   41.8020 H         1 TMP41       0.4100
     20 C13         9.8470   22.7480   38.7410 C.3       1 TMP41      -0.1120
     21 C14        11.1960   22.0800   38.6810 C.ar      1 TMP41      -0.0660
     22 C15        11.7000   21.6490   37.4680 C.ar      1 TMP41      -0.1420
     23 C16        12.9380   21.0350   37.4090 C.ar      1 TMP41      -0.0630
     24 C17        13.6750   20.8510   38.5630 C.ar      1 TMP41      -0.1290
     25 C18        13.4830   20.5670   36.0850 C.3       1 TMP41      -0.1140
     26 H8          9.4210   22.7990   37.7380 H         1 TMP41       0.0700
     27 H9          9.1850   22.1740   39.3880 H         1 TMP41       0.0660
     28 H10         9.9590   23.7570   39.1380 H         1 TMP41       0.0650
     29 H11        11.1260   21.7910   36.5640 H         1 TMP41       0.1200
     30 H12        14.6410   20.3720   38.5160 H         1 TMP41       0.1360
     31 H13        11.5370   22.2440   40.7850 H         1 TMP41       0.1230
     32 H14        14.4620   20.1110   36.2360 H         1 TMP41       0.0720
     33 H15        12.8040   19.8320   35.6520 H         1 TMP41       0.0670
     34 H16        13.5780   21.4160   35.4090 H         1 TMP41       0.0650
     35 C19        11.9300   21.9040   39.8380 C.ar      1 TMP41      -0.1580
     36 C20        18.5640   15.0330   41.4300 C.3       1 TMP41       0.0300
     37 C21        19.3770   13.8860   42.0360 C.3       1 TMP41      -0.1150
     38 C22        17.1860   15.0850   42.0920 C.3       1 TMP41      -0.1710
     39 C23        18.4020   14.8070   39.9500 C.2       1 TMP41       0.4820
     40 H17        18.8570   12.9430   41.8660 H         1 TMP41       0.0500
     41 H18        20.3590   13.8500   41.5640 H         1 TMP41       0.0780
     42 H19        19.4940   14.0490   43.1070 H         1 TMP41       0.0570
     43 H20        16.6660   14.1420   41.9230 H         1 TMP41       0.0670
     44 H21        17.3020   15.2480   43.1640 H         1 TMP41       0.0720
     45 H22        16.6060   15.9020   41.6610 H         1 TMP41       0.0510
     46 O24        18.8310   15.6280   39.1570 O.co2     1 TMP41      -0.6700
     47 O25        17.8430   13.8030   39.5440 O.co2     1 TMP41      -0.6860
@<TRIPOS>BOND
     1   25   34 1
     2   25   33 1
     3   25   32 1
     4   23   25 1
     5   22   29 1
     6   22   23 ar
     7   23   24 ar
     8   21   22 ar
     9   20   26 1
    10   24   30 1
    11   16   24 ar
    12   20   21 1
    13   21   35 ar
    14   20   28 1
    15   20   27 1
    16   39   46 1
    17   39   47 2
    18    4   10 1
    19   16   35 ar
    20   16   17 1
    21   31   35 1
    22   13   18 2
    23    3    9 1
    24   36   39 1
    25    3    4 ar
    26    4    5 ar
    27    2    3 ar
    28   13   17 am
    29    1   13 1
    30   17   19 1
    31    8   36 1
    32   36   37 1
    33   36   38 1
    34   37   41 1
    35    5    8 1
    36   38   45 1
    37    5    6 ar
    38   37   40 1
    39   38   43 1
    40    1    2 1
    41    2    7 ar
    42   37   42 1
    43   38   44 1
    44    1   14 1
    45    1   15 1
    46    6    7 ar
    47    6   11 1
    48    7   12 1
@<TRIPOS>MOLECULE
header  -13.950
   47    48     0     0     0
SMALL
USER_CHARGES

@<TRIPOS>ATOM
      1 C1          7.0610   17.7530   35.7490 C.3       1 TMP46      -0.0850
      2 C2          7.9050   16.6870   36.3990 C.ar      1 TMP46      -0.1310
      3 C3          9.1820   16.9880   36.8360 C.ar      1 TMP46      -0.0790
      4 C4          9.9580   16.0130   37.4320 C.ar      1 TMP46      -0.1710
      5 C5          9.4550   14.7300   37.5910 C.ar      1 TMP46       0.1720
      6 C6          8.1730   14.4300   37.1530 C.ar      1 TMP46      -0.1520
      7 C7          7.3990   15.4110   36.5620 C.ar      1 TMP46      -0.0790
      8 O8         10.2170   13.7680   38.1760 O.3       1 TMP46      -0.3040
      9 H1          9.5730   17.9880   36.7110 H         1 TMP46       0.1140
     10 H2         10.9550   16.2490   37.7720 H         1 TMP46       0.1190
     11 H3          7.7790   13.4320   37.2760 H         1 TMP46       0.1400
     12 H4          6.4000   15.1780   36.2240 H         1 TMP46       0.1100
     13 C9          7.8350   19.0450   35.6990 C.2       1 TMP46       0.5110
     14 H5          6.1500   17.8980   36.3290 H         1 TMP46       0.1000
     15 H6          6.8020   17.4440   34.7370 H         1 TMP46       0.1000
     16 C10         8.8170   20.8260   34.4630 C.ar      1 TMP46       0.1610
     17 N11         8.0990   19.6260   34.5110 N.am      1 TMP46      -0.6820
     18 O12         8.2210   19.5620   36.7250 O.2       1 TMP46      -0.5000
     19 H7          7.7900   19.2130   33.6900 H         1 TMP46       0.4100
     20 C13         8.3320   24.3730   33.2530 C.3       1 TMP46      -0.1120
     21 C14         8.9560   23.1420   33.8590 C.ar      1 TMP46      -0.0660
     22 C15        10.2390   23.1970   34.3690 C.ar      1 TMP46      -0.1420
     23 C16        10.8150   22.0700   34.9260 C.ar      1 TMP46      -0.0630
     24 C17        10.1070   20.8850   34.9750 C.ar      1 TMP46      -0.1290
     25 C18        12.2140   22.1350   35.4800 C.3       1 TMP46      -0.1140
     26 H8          9.0400   25.2000   33.3010 H         1 TMP46       0.0700
     27 H9          8.0760   24.1760   32.2120 H         1 TMP46       0.0660
     28 H10         7.4310   24.6340   33.8060 H         1 TMP46       0.0650
     29 H11        10.7940   24.1230   34.3310 H         1 TMP46       0.1200
     30 H12        10.5570   20.0040   35.4100 H         1 TMP46       0.1360
     31 H13         7.2360   21.9190   33.5150 H         1 TMP46       0.1230
     32 H14        12.4950   21.1580   35.8750 H         1 TMP46       0.0720
     33 H15        12.9060   22.4190   34.6880 H         1 TMP46       0.0670
     34 H16        12.2540   22.8740   36.2800 H         1 TMP46       0.0650
     35 C19         8.2410   21.9610   33.9090 C.ar      1 TMP46      -0.1580
     36 C20        10.1140   13.6340   39.5950 C.3       1 TMP46       0.0300
     37 C21         8.6690   13.3000   39.9730 C.3       1 TMP46      -0.1150
     38 C22        11.0370   12.5090   40.0690 C.3       1 TMP46      -0.1710
     39 C23        10.5200   14.9280   40.2530 C.2       1 TMP46       0.4820
     40 H17         8.5910   13.1980   41.0560 H         1 TMP46       0.0500
     41 H18         8.0110   14.1020   39.6370 H         1 TMP46       0.0780
     42 H19         8.3760   12.3650   39.4980 H         1 TMP46       0.0570
     43 H20        10.9590   12.4070   41.1520 H         1 TMP46       0.0670
     44 H21        10.7440   11.5740   39.5930 H         1 TMP46       0.0720
     45 H22        12.0660   12.7470   39.8000 H         1 TMP46       0.0510
     46 O24         9.6830   15.7860   40.4790 O.co2     1 TMP46      -0.6700
     47 O25        11.6850   15.1170   40.5600 O.co2     1 TMP46      -0.6860
@<TRIPOS>BOND
     1   20   27 1
     2   20   26 1
     3   20   28 1
     4   20   21 1
     5   31   35 1
     6   17   19 1
     7   21   35 ar
     8   21   22 ar
     9   16   35 ar
    10   22   29 1
    11   22   23 ar
    12   16   17 1
    13   16   24 ar
    14   13   17 am
    15   25   33 1
    16    1   15 1
    17   23   24 ar
    18   23   25 1
    19   24   30 1
    20   25   32 1
    21   25   34 1
    22    1   13 1
    23   13   18 2
    24    1   14 1
    25    1    2 1
    26    7   12 1
    27    2    7 ar
    28    2    3 ar
    29    6    7 ar
    30    3    9 1
    31    3    4 ar
    32    6   11 1
    33    5    6 ar
    34    4    5 ar
    35    4   10 1
    36    5    8 1
    37    8   36 1
    38   37   42 1
    39   38   44 1
    40   36   37 1
    41   36   38 1
    42   36   39 1
    43   37   41 1
    44   38   45 1
    45   37   40 1
    46   38   43 1
    47   39   46 1
    48   39   47 2
@<TRIPOS>MOLECULE
header  -23.718
   47    48     0     0     0
SMALL
USER_CHARGES

@<TRIPOS>ATOM
      1 C1         18.6830   18.3860   38.8220 C.3       1 TMP49      -0.0850
      2 C2         17.5090   19.2980   38.5750 C.ar      1 TMP49      -0.1310
      3 C3         17.0710   20.1460   39.5760 C.ar      1 TMP49      -0.0790
      4 C4         15.9940   20.9830   39.3520 C.ar      1 TMP49      -0.1710
      5 C5         15.3530   20.9710   38.1220 C.ar      1 TMP49       0.1720
      6 C6         15.7940   20.1190   37.1200 C.ar      1 TMP49      -0.1520
      7 C7         16.8740   19.2880   37.3470 C.ar      1 TMP49      -0.0790
      8 O8         14.2930   21.7920   37.9000 O.3       1 TMP49      -0.3040
      9 H1         17.5710   20.1550   40.5330 H         1 TMP49       0.1140
     10 H2         15.6530   21.6450   40.1340 H         1 TMP49       0.1190
     11 H3         15.2960   20.1080   36.1620 H         1 TMP49       0.1400
     12 H4         17.2200   18.6280   36.5660 H         1 TMP49       0.1100
     13 C9         18.1930   17.0740   39.3760 C.2       1 TMP49       0.5110
     14 H5         19.3600   18.8520   39.5400 H         1 TMP49       0.1000
     15 H6         19.2100   18.2120   37.8850 H         1 TMP49       0.1000
     16 C10        17.9820   14.7080   39.2220 C.ar      1 TMP49       0.1610
     17 N11        18.4380   15.9270   38.7090 N.am      1 TMP49      -0.6820
     18 O12        17.5770   17.0470   40.4200 O.2       1 TMP49      -0.5000
     19 H7         18.9310   15.9480   37.8740 H         1 TMP49       0.4100
     20 C13        18.9940   11.0670   39.1940 C.3       1 TMP49      -0.1120
     21 C14        18.2320   12.3370   39.4730 C.ar      1 TMP49      -0.0660
     22 C15        17.0810   12.2980   40.2370 C.ar      1 TMP49      -0.1420
     23 C16        16.3780   13.4600   40.4950 C.ar      1 TMP49      -0.0630
     24 C17        16.8260   14.6660   39.9900 C.ar      1 TMP49      -0.1290
     25 C18        15.1230   13.4130   41.3280 C.3       1 TMP49      -0.1140
     26 H8         18.4880   10.2270   39.6690 H         1 TMP49       0.0700
     27 H9         19.0430   10.9010   38.1180 H         1 TMP49       0.0660
     28 H10        20.0050   11.1540   39.5950 H         1 TMP49       0.0650
     29 H11        16.7280   11.3560   40.6330 H         1 TMP49       0.1200
     30 H12        16.2760   15.5730   40.1920 H         1 TMP49       0.1360
     31 H13        19.5900   13.5700   38.3770 H         1 TMP49       0.1230
     32 H14        14.7110   14.4170   41.4220 H         1 TMP49       0.0720
     33 H15        14.3910   12.7640   40.8450 H         1 TMP49       0.0670
     34 H16        15.3580   13.0210   42.3170 H         1 TMP49       0.0650
     35 C19        18.6880   13.5390   38.9690 C.ar      1 TMP49      -0.1580
     36 C20        12.9970   21.2790   38.2150 C.3       1 TMP49       0.0300
     37 C21        11.9390   22.3380   37.8990 C.3       1 TMP49      -0.1150
     38 C22        12.7280   20.0250   37.3790 C.3       1 TMP49      -0.1710
     39 C23        12.9380   20.9300   39.6790 C.2       1 TMP49       0.4820
     40 H17        10.9500   21.9470   38.1400 H         1 TMP49       0.0500
     41 H18        12.1310   23.2310   38.4950 H         1 TMP49       0.0780
     42 H19        11.9820   22.5920   36.8410 H         1 TMP49       0.0570
     43 H20        11.7400   19.6350   37.6190 H         1 TMP49       0.0670
     44 H21        12.7710   20.2790   36.3200 H         1 TMP49       0.0720
     45 H22        13.4820   19.2710   37.6040 H         1 TMP49       0.0510
     46 O24        12.5800   21.7650   40.4910 O.co2     1 TMP49      -0.6700
     47 O25        13.2470   19.8100   40.0520 O.co2     1 TMP49      -0.6860
@<TRIPOS>BOND
     1    6   11 1
     2   38   44 1
     3    7   12 1
     4   37   42 1
     5    6    7 ar
     6    5    6 ar
     7    2    7 ar
     8   38   45 1
     9   38   43 1
    10   36   38 1
    11   17   19 1
    12    1   15 1
    13   37   40 1
    14   36   37 1
    15   37   41 1
    16    5    8 1
    17    8   36 1
    18   20   27 1
    19    4    5 ar
    20   36   39 1
    21   31   35 1
    22    1    2 1
    23    2    3 ar
    24   16   17 1
    25   13   17 am
    26    1   13 1
    27    1   14 1
    28   16   35 ar
    29   21   35 ar
    30   20   21 1
    31   20   28 1
    32   20   26 1
    33   16   24 ar
    34    3    4 ar
    35    4   10 1
    36   13   18 2
    37   21   22 ar
    38    3    9 1
    39   39   47 1
    40   39   46 2
    41   24   30 1
    42   23   24 ar
    43   22   23 ar
    44   22   29 1
    45   23   25 1
    46   25   33 1
    47   25   32 1
    48   25   34 1
@<TRIPOS>MOLECULE
header  -13.774
   47    48     0     0     0
SMALL
USER_CHARGES

@<TRIPOS>ATOM
      1 C1         16.8870   15.5120   43.5040 C.3       1 TMP51      -0.0850
      2 C2         16.9890   16.9000   42.9260 C.ar      1 TMP51      -0.1310
      3 C3         16.5220   17.9840   43.6470 C.ar      1 TMP51      -0.0790
      4 C4         16.6140   19.2580   43.1200 C.ar      1 TMP51      -0.1710
      5 C5         17.1750   19.4490   41.8660 C.ar      1 TMP51       0.1720
      6 C6         17.6430   18.3600   41.1450 C.ar      1 TMP51      -0.1520
      7 C7         17.5540   17.0890   41.6790 C.ar      1 TMP51      -0.0790
      8 O8         17.2660   20.7010   41.3440 O.3       1 TMP51      -0.3040
      9 H1         16.0850   17.8350   44.6240 H         1 TMP51       0.1140
     10 H2         16.2490   20.1030   43.6830 H         1 TMP51       0.1190
     11 H3         18.0800   18.5060   40.1680 H         1 TMP51       0.1400
     12 H4         17.9220   16.2410   41.1190 H         1 TMP51       0.1100
     13 C9         15.5730   14.8950   43.1010 C.2       1 TMP51       0.5110
     14 H5         16.9440   15.5660   44.5920 H         1 TMP51       0.1000
     15 H6         17.7070   14.9010   43.1270 H         1 TMP51       0.1000
     16 C10        14.3370   13.1820   42.0060 C.ar      1 TMP51       0.1610
     17 N11        15.5570   13.7550   42.3810 N.am      1 TMP51      -0.6820
     18 O12        14.5300   15.4230   43.4230 O.2       1 TMP51      -0.5000
     19 H7         16.3910   13.3320   42.1230 H         1 TMP51       0.4100
     20 C13        12.9150    9.7520   41.3030 C.3       1 TMP51      -0.1120
     21 C14        13.0280   11.2440   41.4760 C.ar      1 TMP51      -0.0660
     22 C15        11.9240   12.0490   41.2640 C.ar      1 TMP51      -0.1420
     23 C16        12.0220   13.4190   41.4210 C.ar      1 TMP51      -0.0630
     24 C17        13.2260   13.9880   41.7920 C.ar      1 TMP51      -0.1290
     25 C18        10.8180   14.2930   41.1890 C.3       1 TMP51      -0.1140
     26 H8         11.8980    9.4950   41.0070 H         1 TMP51       0.0700
     27 H9         13.6120    9.4210   40.5320 H         1 TMP51       0.0660
     28 H10        13.1540    9.2570   42.2450 H         1 TMP51       0.0650
     29 H11        10.9820   11.6070   40.9740 H         1 TMP51       0.1200
     30 H12        13.3020   15.0580   41.9150 H         1 TMP51       0.1360
     31 H13        15.0930   11.1760   42.0220 H         1 TMP51       0.1230
     32 H14        11.0860   15.3360   41.3590 H         1 TMP51       0.0720
     33 H15        10.4730   14.1700   40.1620 H         1 TMP51       0.0670
     34 H16        10.0220   14.0050   41.8760 H         1 TMP51       0.0650
     35 C19        14.2320   11.8060   41.8520 C.ar      1 TMP51      -0.1580
     36 C20        16.1620   21.1580   40.5600 C.3       1 TMP51       0.0300
     37 C21        14.8740   20.5040   41.0630 C.3       1 TMP51      -0.1150
     38 C22        16.0450   22.6790   40.6850 C.3       1 TMP51      -0.1710
     39 C23        16.3840   20.7890   39.1160 C.2       1 TMP51       0.4820
     40 H17        14.0310   20.8540   40.4650 H         1 TMP51       0.0500
     41 H18        14.9570   19.4210   40.9740 H         1 TMP51       0.0780
     42 H19        14.7140   20.7720   42.1070 H         1 TMP51       0.0570
     43 H20        15.2030   23.0280   40.0880 H         1 TMP51       0.0670
     44 H21        15.8840   22.9470   41.7290 H         1 TMP51       0.0720
     45 H22        16.9620   23.1450   40.3280 H         1 TMP51       0.0510
     46 O24        17.3930   20.1880   38.7890 O.co2     1 TMP51      -0.6700
     47 O25        15.5540   21.0890   38.2760 O.co2     1 TMP51      -0.6860
@<TRIPOS>BOND
     1   39   47 2
     2   39   46 1
     3   36   39 1
     4   38   43 1
     5   25   33 1
     6    6   11 1
     7   38   45 1
     8   37   40 1
     9   20   27 1
    10   36   38 1
    11   36   37 1
    12    8   36 1
    13   38   44 1
    14   22   29 1
    15   37   41 1
    16   20   26 1
    17   37   42 1
    18    7   12 1
    19    6    7 ar
    20    5    6 ar
    21   25   32 1
    22   23   25 1
    23   25   34 1
    24   22   23 ar
    25   21   22 ar
    26   20   21 1
    27   20   28 1
    28    5    8 1
    29   23   24 ar
    30   21   35 ar
    31    2    7 ar
    32   24   30 1
    33   16   24 ar
    34   16   35 ar
    35   31   35 1
    36    4    5 ar
    37   16   17 1
    38   17   19 1
    39   13   17 am
    40    1    2 1
    41    2    3 ar
    42   13   18 2
    43    1   13 1
    44    3    4 ar
    45    4   10 1
    46    1   15 1
    47    1   14 1
    48    3    9 1
@<TRIPOS>MOLECULE
header  -19.429
   47    48     0     0     0
SMALL
USER_CHARGES

@<TRIPOS>ATOM
      1 C1         15.9810   21.1080   41.7050 C.3       1 TMP54      -0.0850
      2 C2         16.8540   19.9050   41.4570 C.ar      1 TMP54      -0.1310
      3 C3         17.1700   19.5370   40.1620 C.ar      1 TMP54      -0.0790
      4 C4         17.9690   18.4340   39.9310 C.ar      1 TMP54      -0.1710
      5 C5         18.4550   17.6960   41.0000 C.ar      1 TMP54       0.1720
      6 C6         18.1370   18.0680   42.2980 C.ar      1 TMP54      -0.1520
      7 C7         17.3420   19.1740   42.5240 C.ar      1 TMP54      -0.0790
      8 O8         19.2420   16.6100   40.7760 O.3       1 TMP54      -0.3040
      9 H1         16.7910   20.1120   39.3290 H         1 TMP54       0.1140
     10 H2         18.2150   18.1470   38.9200 H         1 TMP54       0.1190
     11 H3         18.5140   17.4950   43.1330 H         1 TMP54       0.1400
     12 H4         17.0970   19.4660   43.5350 H         1 TMP54       0.1100
     13 C9         15.0270   21.2840   40.5510 C.2       1 TMP54       0.5110
     14 H5         16.6060   21.9970   41.7980 H         1 TMP54       0.1000
     15 H6         15.4150   20.9630   42.6250 H         1 TMP54       0.1000
     16 C10        14.1630   22.5820   38.7540 C.ar      1 TMP54       0.1610
     17 N11        15.0490   22.4190   39.8260 N.am      1 TMP54      -0.6820
     18 O12        14.2400   20.4020   40.2760 O.2       1 TMP54      -0.5000
     19 H7         15.6790   23.1240   40.0450 H         1 TMP54       0.4100
     20 C13        11.3920   24.9270   37.7010 C.3       1 TMP54      -0.1120
     21 C14        12.3800   23.7890   37.6990 C.ar      1 TMP54      -0.0660
     22 C15        12.4120   22.9030   36.6380 C.ar      1 TMP54      -0.1420
     23 C16        13.3160   21.8570   36.6310 C.ar      1 TMP54      -0.0630
     24 C17        14.1910   21.6940   37.6870 C.ar      1 TMP54      -0.1290
     25 C18        13.3460   20.8950   35.4730 C.3       1 TMP54      -0.1140
     26 H8         10.7890   24.8870   36.7940 H         1 TMP54       0.0700
     27 H9         10.7430   24.8430   38.5720 H         1 TMP54       0.0660
     28 H10        11.9300   25.8740   37.7380 H         1 TMP54       0.0650
     29 H11        11.7270   23.0290   35.8100 H         1 TMP54       0.1200
     30 H12        14.8980   20.8770   37.6820 H         1 TMP54       0.1360
     31 H13        13.2350   24.3280   39.5810 H         1 TMP54       0.1230
     32 H14        14.1180   20.1440   35.6440 H         1 TMP54       0.0720
     33 H15        12.3770   20.4050   35.3820 H         1 TMP54       0.0670
     34 H16        13.5660   21.4380   34.5540 H         1 TMP54       0.0650
     35 C19        13.2570   23.6340   38.7540 C.ar      1 TMP54      -0.1580
     36 C20        18.5820   15.3510   40.6290 C.3       1 TMP54       0.0300
     37 C21        19.0730   14.3890   41.7120 C.3       1 TMP54      -0.1150
     38 C22        17.0710   15.5470   40.7670 C.3       1 TMP54      -0.1710
     39 C23        18.8930   14.7780   39.2700 C.2       1 TMP54       0.4820
     40 H17        18.5700   13.4280   41.6000 H         1 TMP54       0.0500
     41 H18        20.1490   14.2490   41.6140 H         1 TMP54       0.0780
     42 H19        18.8480   14.8030   42.6950 H         1 TMP54       0.0570
     43 H20        16.5680   14.5860   40.6540 H         1 TMP54       0.0670
     44 H21        16.8460   15.9620   41.7500 H         1 TMP54       0.0720
     45 H22        16.7220   16.2330   39.9950 H         1 TMP54       0.0510
     46 O24        19.6120   15.3910   38.4990 O.co2     1 TMP54      -0.6700
     47 O25        18.4240   13.7010   38.9420 O.co2     1 TMP54      -0.6860
@<TRIPOS>BOND
     1   25   34 1
     2   25   33 1
     3   25   32 1
     4   23   25 1
     5   22   29 1
     6   22   23 ar
     7   23   24 ar
     8   21   22 ar
     9   20   26 1
    10   24   30 1
    11   16   24 ar
    12   20   21 1
    13   21   35 ar
    14   20   28 1
    15   20   27 1
    16   39   46 2
    17   16   35 ar
    18   16   17 1
    19   31   35 1
    20    4   10 1
    21   39   47 1
    22   36   39 1
    23    3    9 1
    24   17   19 1
    25   13   17 am
    26    3    4 ar
    27    4    5 ar
    28   38   45 1
    29    2    3 ar
    30   13   18 2
    31    1   13 1
    32   36   38 1
    33    8   36 1
    34   36   37 1
    35   38   43 1
    36   38   44 1
    37    5    8 1
    38    5    6 ar
    39    1    2 1
    40    2    7 ar
    41   37   40 1
    42   37   41 1
    43    1   14 1
    44    1   15 1
    45   37   42 1
    46    6    7 ar
    47    6   11 1
    48    7   12 1
@<TRIPOS>MOLECULE
header  -24.208
   47    48     0     0     0
SMALL
USER_CHARGES

@<TRIPOS>ATOM
      1 C1         18.8770   16.2280   41.5500 C.3       1 TMP55      -0.0850
      2 C2         17.9950   17.4460   41.4660 C.ar      1 TMP55      -0.1310
      3 C3         16.9250   17.5850   42.3310 C.ar      1 TMP55      -0.0790
      4 C4         16.1140   18.7000   42.2560 C.ar      1 TMP55      -0.1710
      5 C5         16.3730   19.6810   41.3100 C.ar      1 TMP55       0.1720
      6 C6         17.4460   19.5400   40.4430 C.ar      1 TMP55      -0.1520
      7 C7         18.2580   18.4250   40.5260 C.ar      1 TMP55      -0.0790
      8 O8         15.5750   20.7800   41.2330 O.3       1 TMP55      -0.3040
      9 H1         16.7240   16.8210   43.0680 H         1 TMP55       0.1140
     10 H2         15.2790   18.8080   42.9320 H         1 TMP55       0.1190
     11 H3         17.6500   20.3020   39.7050 H         1 TMP55       0.1400
     12 H4         19.0960   18.3160   39.8530 H         1 TMP55       0.1100
     13 C9         18.3330   15.1480   40.6520 C.2       1 TMP55       0.5110
     14 H5         18.9000   15.8660   42.5790 H         1 TMP55       0.1000
     15 H6         19.8870   16.4890   41.2340 H         1 TMP55       0.1000
     16 C10        17.4600   12.9580   40.3350 C.ar      1 TMP55       0.1610
     17 N11        17.9650   13.9600   41.1710 N.am      1 TMP55      -0.6820
     18 O12        18.2240   15.3490   39.4600 O.2       1 TMP55      -0.5000
     19 H7         18.0520   13.7990   42.1230 H         1 TMP55       0.4100
     20 C13        14.1180   11.7990   39.0030 C.3       1 TMP55      -0.1120
     21 C14        15.5980   11.8860   39.2670 C.ar      1 TMP55      -0.0660
     22 C15        16.4590   10.9750   38.6840 C.ar      1 TMP55      -0.1420
     23 C16        17.8190   11.0520   38.9240 C.ar      1 TMP55      -0.0630
     24 C17        18.3220   12.0400   39.7480 C.ar      1 TMP55      -0.1290
     25 C18        18.7530   10.0560   38.2870 C.3       1 TMP55      -0.1140
     26 H8         13.9160   10.9590   38.3390 H         1 TMP55       0.0700
     27 H9         13.5890   11.6530   39.9440 H         1 TMP55       0.0660
     28 H10        13.7780   12.7220   38.5340 H         1 TMP55       0.0650
     29 H11        16.0690   10.2000   38.0400 H         1 TMP55       0.1200
     30 H12        19.3840   12.1000   39.9350 H         1 TMP55       0.1360
     31 H13        15.4230   13.5950   40.5390 H         1 TMP55       0.1230
     32 H14        19.7770   10.2730   38.5900 H         1 TMP55       0.0720
     33 H15        18.4860    9.0500   38.6090 H         1 TMP55       0.0670
     34 H16        18.6730   10.1240   37.2020 H         1 TMP55       0.0650
     35 C19        16.0950   12.8800   40.0880 C.ar      1 TMP55      -0.1580
     36 C20        15.4930   21.6040   42.3970 C.3       1 TMP55       0.0300
     37 C21        15.2370   23.0530   41.9790 C.3       1 TMP55      -0.1150
     38 C22        14.3450   21.1190   43.2840 C.3       1 TMP55      -0.1710
     39 C23        16.7880   21.5240   43.1630 C.2       1 TMP55       0.4820
     40 H17        15.1740   23.6820   42.8660 H         1 TMP55       0.0500
     41 H18        16.0550   23.3990   41.3460 H         1 TMP55       0.0780
     42 H19        14.3010   23.1120   41.4240 H         1 TMP55       0.0570
     43 H20        14.2810   21.7480   44.1710 H         1 TMP55       0.0670
     44 H21        13.4080   21.1770   42.7300 H         1 TMP55       0.0720
     45 H22        14.5260   20.0870   43.5820 H         1 TMP55       0.0510
     46 O24        17.6900   22.3080   42.9210 O.co2     1 TMP55      -0.6700
     47 O25        16.9350   20.6740   44.0250 O.co2     1 TMP55      -0.6860
@<TRIPOS>BOND
     1   25   34 1
     2   22   29 1
     3   25   32 1
     4   25   33 1
     5   23   25 1
     6   20   26 1
     7   20   28 1
     8   22   23 ar
     9   21   22 ar
    10   23   24 ar
    11   20   21 1
    12   20   27 1
    13   21   35 ar
    14   13   18 2
    15    6   11 1
    16   24   30 1
    17   16   24 ar
    18    7   12 1
    19   16   35 ar
    20   31   35 1
    21   16   17 1
    22    6    7 ar
    23    5    6 ar
    24    2    7 ar
    25   13   17 am
    26    1   13 1
    27   17   19 1
    28    5    8 1
    29    8   36 1
    30    1   15 1
    31    4    5 ar
    32   37   41 1
    33   37   42 1
    34    1    2 1
    35    2    3 ar
    36    1   14 1
    37   36   37 1
    38   37   40 1
    39    3    4 ar
    40    4   10 1
    41    3    9 1
    42   36   39 1
    43   36   38 1
    44   38   44 1
    45   39   46 2
    46   39   47 1
    47   38   45 1
    48   38   43 1
@<TRIPOS>MOLECULE
header  -26.966
   47    48     0     0     0
SMALL
USER_CHARGES

@<TRIPOS>ATOM
      1 C1         17.4400   16.3020   43.9030 C.3       1 TMP56      -0.0850
      2 C2         16.8880   17.6070   43.3900 C.ar      1 TMP56      -0.1310
      3 C3         16.1630   18.4290   44.2320 C.ar      1 TMP56      -0.0790
      4 C4         15.6560   19.6260   43.7640 C.ar      1 TMP56      -0.1710
      5 C5         15.8750   20.0020   42.4470 C.ar      1 TMP56       0.1720
      6 C6         16.6030   19.1760   41.6040 C.ar      1 TMP56      -0.1520
      7 C7         17.1130   17.9830   42.0780 C.ar      1 TMP56      -0.0790
      8 O8         15.3760   21.1790   41.9840 O.3       1 TMP56      -0.3040
      9 H1         15.9930   18.1360   45.2580 H         1 TMP56       0.1140
     10 H2         15.0890   20.2670   44.4230 H         1 TMP56       0.1190
     11 H3         16.7750   19.4670   40.5780 H         1 TMP56       0.1400
     12 H4         17.6830   17.3410   41.4230 H         1 TMP56       0.1100
     13 C9         16.4260   15.2080   43.6880 C.2       1 TMP56       0.5110
     14 H5         17.6550   16.3930   44.9680 H         1 TMP56       0.1000
     15 H6         18.3570   16.0590   43.3660 H         1 TMP56       0.1000
     16 C10        15.7950   13.1270   42.7210 C.ar      1 TMP56       0.1610
     17 N11        16.7360   14.1430   42.9220 N.am      1 TMP56      -0.6820
     18 O12        15.3310   15.2860   44.2020 O.2       1 TMP56      -0.5000
     19 H7         17.6130   14.0810   42.5100 H         1 TMP56       0.4100
     20 C13        15.7390    9.4030   42.0810 C.3       1 TMP56      -0.1120
     21 C14        15.2840   10.8210   42.3110 C.ar      1 TMP56      -0.0660
     22 C15        13.9340   11.1200   42.3240 C.ar      1 TMP56      -0.1420
     23 C16        13.5110   12.4190   42.5340 C.ar      1 TMP56      -0.0630
     24 C17        14.4390   13.4240   42.7330 C.ar      1 TMP56      -0.1290
     25 C18        12.0390   12.7410   42.5460 C.3       1 TMP56      -0.1140
     26 H8         14.8700    8.7600   41.9410 H         1 TMP56       0.0700
     27 H9         16.3680    9.3630   41.1910 H         1 TMP56       0.0660
     28 H10        16.3090    9.0600   42.9450 H         1 TMP56       0.0650
     29 H11        13.2070   10.3350   42.1680 H         1 TMP56       0.1200
     30 H12        14.1080   14.4390   42.8970 H         1 TMP56       0.1360
     31 H13        17.2690   11.5860   42.5090 H         1 TMP56       0.1230
     32 H14        11.9010   13.8070   42.7240 H         1 TMP56       0.0720
     33 H15        11.6020   12.4740   41.5840 H         1 TMP56       0.0670
     34 H16        11.5500   12.1730   43.3380 H         1 TMP56       0.0650
     35 C19        16.2160   11.8200   42.5140 C.ar      1 TMP56      -0.1580
     36 C20        14.0660   21.1490   41.4150 C.3       1 TMP56       0.0300
     37 C21        13.2440   20.0470   42.0850 C.3       1 TMP56      -0.1150
     38 C22        13.3840   22.5010   41.6360 C.3       1 TMP56      -0.1710
     39 C23        14.1660   20.8730   39.9370 C.2       1 TMP56       0.4820
     40 H17        12.2440   20.0240   41.6520 H         1 TMP56       0.0500
     41 H18        13.7300   19.0840   41.9280 H         1 TMP56       0.0780
     42 H19        13.1720   20.2470   43.1540 H         1 TMP56       0.0570
     43 H20        12.3840   22.4780   41.2030 H         1 TMP56       0.0670
     44 H21        13.3110   22.7010   42.7050 H         1 TMP56       0.0720
     45 H22        13.9690   23.2860   41.1590 H         1 TMP56       0.0510
     46 O24        15.2580   20.7160   39.4180 O.co2     1 TMP56      -0.6700
     47 O25        13.1550   20.8060   39.2590 O.co2     1 TMP56      -0.6860
@<TRIPOS>BOND
     1   39   47 2
     2   39   46 1
     3   36   39 1
     4    6   11 1
     5   38   45 1
     6   20   27 1
     7   38   43 1
     8   36   38 1
     9    8   36 1
    10   36   37 1
    11    7   12 1
    12   25   33 1
    13    6    7 ar
    14    5    6 ar
    15   38   44 1
    16   37   40 1
    17   37   41 1
    18   20   26 1
    19    5    8 1
    20    2    7 ar
    21   20   21 1
    22   20   28 1
    23   37   42 1
    24   22   29 1
    25   21   22 ar
    26   21   35 ar
    27   22   23 ar
    28    4    5 ar
    29   31   35 1
    30   17   19 1
    31   16   35 ar
    32   23   25 1
    33   23   24 ar
    34   25   32 1
    35   25   34 1
    36   16   24 ar
    37   16   17 1
    38   24   30 1
    39   13   17 am
    40    1   15 1
    41    1    2 1
    42    2    3 ar
    43    1   13 1
    44   13   18 2
    45    3    4 ar
    46    4   10 1
    47    1   14 1
    48    3    9 1
@<TRIPOS>MOLECULE
header  -26.996
   47    48     0     0     0
SMALL
USER_CHARGES

@<TRIPOS>ATOM
      1 C1         20.0190   14.8290   40.0990 C.3       1 TMP63      -0.0850
      2 C2         19.5240   16.0730   40.7890 C.ar      1 TMP63      -0.1310
      3 C3         18.9580   15.9850   42.0480 C.ar      1 TMP63      -0.0790
      4 C4         18.5030   17.1250   42.6830 C.ar      1 TMP63      -0.1710
      5 C5         18.6150   18.3570   42.0580 C.ar      1 TMP63       0.1720
      6 C6         19.1840   18.4430   40.7950 C.ar      1 TMP63      -0.1520
      7 C7         19.6420   17.3010   40.1660 C.ar      1 TMP63      -0.0790
      8 O8         18.1670   19.4800   42.6800 O.3       1 TMP63      -0.3040
      9 H1         18.8710   15.0250   42.5350 H         1 TMP63       0.1140
     10 H2         18.0600   17.0550   43.6660 H         1 TMP63       0.1190
     11 H3         19.2720   19.4010   40.3060 H         1 TMP63       0.1400
     12 H4         20.0890   17.3680   39.1850 H         1 TMP63       0.1100
     13 C9         19.1950   13.6460   40.5420 C.2       1 TMP63       0.5110
     14 H5         21.0640   14.6600   40.3580 H         1 TMP63       0.1000
     15 H6         19.9270   14.9510   39.0190 H         1 TMP63       0.1000
     16 C10        17.7330   11.8360   40.0470 C.ar      1 TMP63       0.1610
     17 N11        18.4980   12.9340   39.6350 N.am      1 TMP63      -0.6820
     18 O12        19.1610   13.3360   41.7140 O.2       1 TMP63      -0.5000
     19 H7         18.5260   13.1810   38.6980 H         1 TMP63       0.4100
     20 C13        16.5590    8.5230   38.6600 C.3       1 TMP63      -0.1120
     21 C14        16.7770    9.6850   39.5940 C.ar      1 TMP63      -0.0660
     22 C15        16.2200    9.6670   40.8600 C.ar      1 TMP63      -0.1420
     23 C16        16.4180   10.7310   41.7200 C.ar      1 TMP63      -0.0630
     24 C17        17.1730   11.8160   41.3170 C.ar      1 TMP63      -0.1290
     25 C18        15.8100   10.7080   43.0980 C.3       1 TMP63      -0.1140
     26 H8         15.9400    7.7720   39.1520 H         1 TMP63       0.0700
     27 H9         16.0600    8.8710   37.7570 H         1 TMP63       0.0660
     28 H10        17.5210    8.0830   38.3970 H         1 TMP63       0.0650
     29 H11        15.6290    8.8210   41.1770 H         1 TMP63       0.1200
     30 H12        17.3270   12.6460   41.9900 H         1 TMP63       0.1360
     31 H13        17.9750   10.7750   38.2000 H         1 TMP63       0.1230
     32 H14        16.0720   11.6250   43.6270 H         1 TMP63       0.0720
     33 H15        14.7250   10.6340   43.0150 H         1 TMP63       0.0670
     34 H16        16.1900    9.8490   43.6500 H         1 TMP63       0.0650
     35 C19        17.5370   10.7630   39.1870 C.ar      1 TMP63      -0.1580
     36 C20        16.8070   19.8510   42.4480 C.3       1 TMP63       0.0300
     37 C21        15.9720   18.5960   42.1880 C.3       1 TMP63      -0.1150
     38 C22        16.2620   20.5810   43.6780 C.3       1 TMP63      -0.1710
     39 C23        16.7320   20.7620   41.2500 C.2       1 TMP63       0.4820
     40 H17        14.9350   18.8790   42.0110 H         1 TMP63       0.0500
     41 H18        16.3610   18.0760   41.3120 H         1 TMP63       0.0780
     42 H19        16.0270   17.9370   43.0540 H         1 TMP63       0.0570
     43 H20        15.2250   20.8640   43.5020 H         1 TMP63       0.0670
     44 H21        16.3150   19.9210   44.5450 H         1 TMP63       0.0720
     45 H22        16.8560   21.4740   43.8640 H         1 TMP63       0.0510
     46 O24        16.5800   20.2920   40.1360 O.co2     1 TMP63      -0.6700
     47 O25        16.8240   21.9690   41.3950 O.co2     1 TMP63      -0.6860
@<TRIPOS>BOND
     1   20   27 1
     2   31   35 1
     3   20   28 1
     4   20   26 1
     5   20   21 1
     6   17   19 1
     7    1   15 1
     8    7   12 1
     9   21   35 ar
    10   16   35 ar
    11   21   22 ar
    12   16   17 1
    13   13   17 am
    14   16   24 ar
    15    1   14 1
    16    1   13 1
    17    1    2 1
    18   39   46 2
    19    2    7 ar
    20    6    7 ar
    21    6   11 1
    22   13   18 2
    23    2    3 ar
    24    5    6 ar
    25   22   29 1
    26   22   23 ar
    27   39   47 1
    28   36   39 1
    29   37   41 1
    30   23   24 ar
    31   24   30 1
    32   23   25 1
    33   37   40 1
    34    3    9 1
    35    3    4 ar
    36    5    8 1
    37    4    5 ar
    38   36   37 1
    39   37   42 1
    40    8   36 1
    41   36   38 1
    42    4   10 1
    43   25   33 1
    44   25   32 1
    45   25   34 1
    46   38   43 1
    47   38   45 1
    48   38   44 1
@<TRIPOS>MOLECULE
header  -14.236
   47    48     0     0     0
SMALL
USER_CHARGES

@<TRIPOS>ATOM
      1 C1         17.1870   20.8820   42.1800 C.3       1 TMP68      -0.0850
      2 C2         17.4360   19.4000   42.2970 C.ar      1 TMP68      -0.1310
      3 C3         16.6640   18.6360   43.1530 C.ar      1 TMP68      -0.0790
      4 C4         16.8900   17.2770   43.2630 C.ar      1 TMP68      -0.1710
      5 C5         17.8920   16.6800   42.5130 C.ar      1 TMP68       0.1720
      6 C6         18.6650   17.4490   41.6550 C.ar      1 TMP68      -0.1520
      7 C7         18.4320   18.8060   41.5450 C.ar      1 TMP68      -0.0790
      8 O8         18.1180   15.3440   42.6200 O.3       1 TMP68      -0.3040
      9 H1         15.8830   19.1020   43.7360 H         1 TMP68       0.1140
     10 H2         16.2870   16.6820   43.9310 H         1 TMP68       0.1190
     11 H3         19.4470   16.9860   41.0700 H         1 TMP68       0.1400
     12 H4         19.0310   19.4040   40.8740 H         1 TMP68       0.1100
     13 C9         15.7310   21.1680   42.4400 C.2       1 TMP68       0.5110
     14 H5         17.4500   21.2160   41.1770 H         1 TMP68       0.1000
     15 H6         17.7970   21.4120   42.9120 H         1 TMP68       0.1000
     16 C10        13.4320   20.8830   41.8950 C.ar      1 TMP68       0.1610
     17 N11        14.7850   20.6170   41.6540 N.am      1 TMP68      -0.6820
     18 O12        15.4100   21.8960   43.3550 O.2       1 TMP68      -0.5000
     19 H7         15.0410   20.0340   40.9220 H         1 TMP68       0.4100
     20 C13        10.2770   18.9810   42.7410 C.3       1 TMP68      -0.1120
     21 C14        11.2250   20.1090   42.4240 C.ar      1 TMP68      -0.0660
     22 C15        10.7580   21.4100   42.3710 C.ar      1 TMP68      -0.1420
     23 C16        11.6240   22.4480   42.0810 C.ar      1 TMP68      -0.0630
     24 C17        12.9600   22.1880   41.8430 C.ar      1 TMP68      -0.1290
     25 C18        11.1110   23.8630   42.0240 C.3       1 TMP68      -0.1140
     26 H8          9.2740   19.3810   42.8910 H         1 TMP68       0.0700
     27 H9         10.2650   18.2740   41.9120 H         1 TMP68       0.0660
     28 H10        10.6060   18.4740   43.6470 H         1 TMP68       0.0650
     29 H11         9.7140   21.6150   42.5560 H         1 TMP68       0.1200
     30 H12        13.6370   22.9980   41.6160 H         1 TMP68       0.1360
     31 H13        12.9250   18.8280   42.2370 H         1 TMP68       0.1230
     32 H14        11.9320   24.5380   41.7830 H         1 TMP68       0.0720
     33 H15        10.3420   23.9400   41.2560 H         1 TMP68       0.0670
     34 H16        10.6880   24.1360   42.9900 H         1 TMP68       0.0650
     35 C19        12.5600   19.8430   42.1920 C.ar      1 TMP68      -0.1580
     36 C20        17.3940   14.4920   41.7300 C.3       1 TMP68       0.0300
     37 C21        17.7760   13.0340   41.9950 C.3       1 TMP68      -0.1150
     38 C22        15.8920   14.6750   41.9560 C.3       1 TMP68      -0.1710
     39 C23        17.7340   14.8480   40.3050 C.2       1 TMP68       0.4820
     40 H17        17.2240   12.3840   41.3170 H         1 TMP68       0.0500
     41 H18        18.8460   12.9040   41.8340 H         1 TMP68       0.0780
     42 H19        17.5300   12.7770   43.0260 H         1 TMP68       0.0570
     43 H20        15.3400   14.0250   41.2780 H         1 TMP68       0.0670
     44 H21        15.6460   14.4170   42.9860 H         1 TMP68       0.0720
     45 H22        15.6200   15.7130   41.7660 H         1 TMP68       0.0510
     46 O24        18.6680   14.2980   39.7450 O.co2     1 TMP68      -0.6700
     47 O25        17.0750   15.6850   39.7120 O.co2     1 TMP68      -0.6860
@<TRIPOS>BOND
     1   39   47 2
     2   39   46 1
     3   36   39 1
     4    7   12 1
     5   17   19 1
     6    6   11 1
     7    1   14 1
     8   25   33 1
     9   38   43 1
    10   37   40 1
    11    6    7 ar
    12    2    7 ar
    13   24   30 1
    14   16   17 1
    15   13   17 am
    16    5    6 ar
    17   36   38 1
    18   36   37 1
    19    8   36 1
    20   38   45 1
    21   25   32 1
    22   37   41 1
    23   16   24 ar
    24   23   24 ar
    25   16   35 ar
    26   20   27 1
    27   38   44 1
    28   37   42 1
    29   23   25 1
    30   25   34 1
    31   22   23 ar
    32    1    2 1
    33    1   13 1
    34    1   15 1
    35   31   35 1
    36   21   35 ar
    37    2    3 ar
    38   21   22 ar
    39   22   29 1
    40   20   21 1
    41   13   18 2
    42    5    8 1
    43    4    5 ar
    44   20   26 1
    45   20   28 1
    46    3    4 ar
    47    3    9 1
    48    4   10 1
@<TRIPOS>MOLECULE
header  -26.246
   47    48     0     0     0
SMALL
USER_CHARGES

@<TRIPOS>ATOM
      1 C1         16.9280   20.5830   41.6990 C.3       1 TMP69      -0.0850
      2 C2         17.1900   19.1150   41.9090 C.ar      1 TMP69      -0.1310
      3 C3         18.1970   18.4850   41.2010 C.ar      1 TMP69      -0.0790
      4 C4         18.4390   17.1370   41.3910 C.ar      1 TMP69      -0.1710
      5 C5         17.6700   16.4170   42.2930 C.ar      1 TMP69       0.1720
      6 C6         16.6600   17.0520   43.0020 C.ar      1 TMP69      -0.1520
      7 C7         16.4260   18.4000   42.8130 C.ar      1 TMP69      -0.0790
      8 O8         17.9050   15.0920   42.4810 O.3       1 TMP69      -0.3040
      9 H1         18.7960   19.0460   40.4990 H         1 TMP69       0.1140
     10 H2         19.2250   16.6470   40.8380 H         1 TMP69       0.1190
     11 H3         16.0600   16.4930   43.7050 H         1 TMP69       0.1400
     12 H4         15.6430   18.8950   43.3670 H         1 TMP69       0.1100
     13 C9         15.9200   20.7620   40.5940 C.2       1 TMP69       0.5110
     14 H5         17.8590   21.0830   41.4250 H         1 TMP69       0.1000
     15 H6         16.5400   21.0180   42.6200 H         1 TMP69       0.1000
     16 C10        13.8130   21.5500   39.8170 C.ar      1 TMP69       0.1610
     17 N11        14.7500   21.3840   40.8430 N.am      1 TMP69      -0.6820
     18 O12        16.1600   20.3460   39.4810 O.2       1 TMP69      -0.5000
     19 H7         14.5580   21.7180   41.7340 H         1 TMP69       0.4100
     20 C13        10.0630   21.7940   39.4170 C.3       1 TMP69      -0.1120
     21 C14        11.5350   21.7510   39.0970 C.ar      1 TMP69      -0.0660
     22 C15        11.9610   21.8760   37.7880 C.ar      1 TMP69      -0.1420
     23 C16        13.3110   21.8380   37.4900 C.ar      1 TMP69      -0.0630
     24 C17        14.2380   21.6750   38.5000 C.ar      1 TMP69      -0.1290
     25 C18        13.7700   21.9740   36.0610 C.3       1 TMP69      -0.1140
     26 H8          9.4950   21.9220   38.4960 H         1 TMP69       0.0700
     27 H9          9.7700   20.8610   39.8990 H         1 TMP69       0.0660
     28 H10         9.8610   22.6280   40.0890 H         1 TMP69       0.0650
     29 H11        11.2380   22.0030   36.9960 H         1 TMP69       0.1200
     30 H12        15.2920   21.6460   38.2670 H         1 TMP69       0.1360
     31 H13        12.1250   21.5000   41.1360 H         1 TMP69       0.1230
     32 H14        14.8590   21.9200   36.0230 H         1 TMP69       0.0720
     33 H15        13.3460   21.1660   35.4650 H         1 TMP69       0.0670
     34 H16        13.4390   22.9330   35.6630 H         1 TMP69       0.0650
     35 C19        12.4570   21.5930   40.1130 C.ar      1 TMP69      -0.1580
     36 C20        17.1900   14.1810   41.6440 C.3       1 TMP69       0.0300
     37 C21        16.9620   12.8680   42.3970 C.3       1 TMP69      -0.1150
     38 C22        15.8410   14.7910   41.2620 C.3       1 TMP69      -0.1710
     39 C23        17.9910   13.9120   40.3970 C.2       1 TMP69       0.4820
     40 H17        16.4170   12.1730   41.7580 H         1 TMP69       0.0500
     41 H18        17.9240   12.4340   42.6690 H         1 TMP69       0.0780
     42 H19        16.3830   13.0630   43.3000 H         1 TMP69       0.0570
     43 H20        15.2960   14.0960   40.6230 H         1 TMP69       0.0670
     44 H21        15.2610   14.9860   42.1640 H         1 TMP69       0.0720
     45 H22        16.0030   15.7260   40.7260 H         1 TMP69       0.0510
     46 O24        18.7900   12.9900   40.3710 O.co2     1 TMP69      -0.6700
     47 O25        17.8410   14.6150   39.4120 O.co2     1 TMP69      -0.6860
@<TRIPOS>BOND
     1   25   33 1
     2   25   34 1
     3   25   32 1
     4   23   25 1
     5   22   29 1
     6   22   23 ar
     7   23   24 ar
     8   21   22 ar
     9   24   30 1
    10   20   26 1
    11   16   24 ar
    12   20   21 1
    13   21   35 ar
    14   39   47 2
    15   20   27 1
    16   20   28 1
    17   13   18 2
    18   16   35 ar
    19   16   17 1
    20   31   35 1
    21   39   46 1
    22   36   39 1
    23    3    9 1
    24   13   17 am
    25    1   13 1
    26   38   43 1
    27   38   45 1
    28    4   10 1
    29   17   19 1
    30    3    4 ar
    31    2    3 ar
    32   36   38 1
    33   38   44 1
    34    4    5 ar
    35    1   14 1
    36   36   37 1
    37    8   36 1
    38    1    2 1
    39    1   15 1
    40   37   40 1
    41    2    7 ar
    42    5    8 1
    43    5    6 ar
    44   37   41 1
    45   37   42 1
    46    6    7 ar
    47    7   12 1
    48    6   11 1
